version 3
run Tictoc2-0-20240214-19:43:50-5782
attr configname Tictoc2
attr datetime 20240214-19:43:50
attr datetimef 20240214-194350
attr experiment Tictoc2
attr inifile omnetpp.ini
attr iterationvars ""
attr iterationvarsd ""
attr iterationvarsf ""
attr measurement ""
attr network Tictoc2
attr processid 5782
attr repetition 0
attr replication #0
attr resultdir results
attr runnumber 0
attr seedset 0
config network Tictoc2

par Tictoc2.switch[0].peer_gate$o[0].channel typename "\"Tictoc2.Channel\""
par Tictoc2.switch[0].peer_gate$o[0].channel disabled false
attr mutable ""
par Tictoc2.switch[0].peer_gate$o[0].channel delay 0.1s
attr mutable ""
attr unit s
par Tictoc2.peer[0].gate$o[0].channel typename "\"Tictoc2.Channel\""
par Tictoc2.peer[0].gate$o[0].channel disabled false
attr mutable ""
par Tictoc2.peer[0].gate$o[0].channel delay 0.1s
attr mutable ""
attr unit s
par Tictoc2.switch[0].peer_gate$o[1].channel typename "\"Tictoc2.Channel\""
par Tictoc2.switch[0].peer_gate$o[1].channel disabled false
attr mutable ""
par Tictoc2.switch[0].peer_gate$o[1].channel delay 0.1s
attr mutable ""
attr unit s
par Tictoc2.peer[1].gate$o[0].channel typename "\"Tictoc2.Channel\""
par Tictoc2.peer[1].gate$o[0].channel disabled false
attr mutable ""
par Tictoc2.peer[1].gate$o[0].channel delay 0.1s
attr mutable ""
attr unit s
par Tictoc2.switch[0].peer_gate$o[2].channel typename "\"Tictoc2.Channel\""
par Tictoc2.switch[0].peer_gate$o[2].channel disabled false
attr mutable ""
par Tictoc2.switch[0].peer_gate$o[2].channel delay 0.1s
attr mutable ""
attr unit s
par Tictoc2.peer[2].gate$o[0].channel typename "\"Tictoc2.Channel\""
par Tictoc2.peer[2].gate$o[0].channel disabled false
attr mutable ""
par Tictoc2.peer[2].gate$o[0].channel delay 0.1s
attr mutable ""
attr unit s
par Tictoc2.switch[0].peer_gate$o[3].channel typename "\"Tictoc2.Channel\""
par Tictoc2.switch[0].peer_gate$o[3].channel disabled false
attr mutable ""
par Tictoc2.switch[0].peer_gate$o[3].channel delay 0.1s
attr mutable ""
attr unit s
par Tictoc2.peer[3].gate$o[0].channel typename "\"Tictoc2.Channel\""
par Tictoc2.peer[3].gate$o[0].channel disabled false
attr mutable ""
par Tictoc2.peer[3].gate$o[0].channel delay 0.1s
attr mutable ""
attr unit s
par Tictoc2.switch[0].peer_gate$o[4].channel typename "\"Tictoc2.Channel\""
par Tictoc2.switch[0].peer_gate$o[4].channel disabled false
attr mutable ""
par Tictoc2.switch[0].peer_gate$o[4].channel delay 0.1s
attr mutable ""
attr unit s
par Tictoc2.peer[4].gate$o[0].channel typename "\"Tictoc2.Channel\""
par Tictoc2.peer[4].gate$o[0].channel disabled false
attr mutable ""
par Tictoc2.peer[4].gate$o[0].channel delay 0.1s
attr mutable ""
attr unit s
par Tictoc2.switch[0].peer_gate$o[5].channel typename "\"Tictoc2.Channel\""
par Tictoc2.switch[0].peer_gate$o[5].channel disabled false
attr mutable ""
par Tictoc2.switch[0].peer_gate$o[5].channel delay 0.1s
attr mutable ""
attr unit s
par Tictoc2.peer[5].gate$o[0].channel typename "\"Tictoc2.Channel\""
par Tictoc2.peer[5].gate$o[0].channel disabled false
attr mutable ""
par Tictoc2.peer[5].gate$o[0].channel delay 0.1s
attr mutable ""
attr unit s
par Tictoc2.switch[0].peer_gate$o[6].channel typename "\"Tictoc2.Channel\""
par Tictoc2.switch[0].peer_gate$o[6].channel disabled false
attr mutable ""
par Tictoc2.switch[0].peer_gate$o[6].channel delay 0.1s
attr mutable ""
attr unit s
par Tictoc2.peer[6].gate$o[0].channel typename "\"Tictoc2.Channel\""
par Tictoc2.peer[6].gate$o[0].channel disabled false
attr mutable ""
par Tictoc2.peer[6].gate$o[0].channel delay 0.1s
attr mutable ""
attr unit s
par Tictoc2.switch[0].peer_gate$o[7].channel typename "\"Tictoc2.Channel\""
par Tictoc2.switch[0].peer_gate$o[7].channel disabled false
attr mutable ""
par Tictoc2.switch[0].peer_gate$o[7].channel delay 0.1s
attr mutable ""
attr unit s
par Tictoc2.peer[7].gate$o[0].channel typename "\"Tictoc2.Channel\""
par Tictoc2.peer[7].gate$o[0].channel disabled false
attr mutable ""
par Tictoc2.peer[7].gate$o[0].channel delay 0.1s
attr mutable ""
attr unit s
par Tictoc2.switch[0].peer_gate$o[8].channel typename "\"Tictoc2.Channel\""
par Tictoc2.switch[0].peer_gate$o[8].channel disabled false
attr mutable ""
par Tictoc2.switch[0].peer_gate$o[8].channel delay 0.1s
attr mutable ""
attr unit s
par Tictoc2.peer[8].gate$o[0].channel typename "\"Tictoc2.Channel\""
par Tictoc2.peer[8].gate$o[0].channel disabled false
attr mutable ""
par Tictoc2.peer[8].gate$o[0].channel delay 0.1s
attr mutable ""
attr unit s
par Tictoc2.switch[0].peer_gate$o[9].channel typename "\"Tictoc2.Channel\""
par Tictoc2.switch[0].peer_gate$o[9].channel disabled false
attr mutable ""
par Tictoc2.switch[0].peer_gate$o[9].channel delay 0.1s
attr mutable ""
attr unit s
par Tictoc2.peer[9].gate$o[0].channel typename "\"Tictoc2.Channel\""
par Tictoc2.peer[9].gate$o[0].channel disabled false
attr mutable ""
par Tictoc2.peer[9].gate$o[0].channel delay 0.1s
attr mutable ""
attr unit s
par Tictoc2.switch[0].peer_gate$o[10].channel typename "\"Tictoc2.Channel\""
par Tictoc2.switch[0].peer_gate$o[10].channel disabled false
attr mutable ""
par Tictoc2.switch[0].peer_gate$o[10].channel delay 0.1s
attr mutable ""
attr unit s
par Tictoc2.peer[10].gate$o[0].channel typename "\"Tictoc2.Channel\""
par Tictoc2.peer[10].gate$o[0].channel disabled false
attr mutable ""
par Tictoc2.peer[10].gate$o[0].channel delay 0.1s
attr mutable ""
attr unit s
par Tictoc2.switch[0].peer_gate$o[11].channel typename "\"Tictoc2.Channel\""
par Tictoc2.switch[0].peer_gate$o[11].channel disabled false
attr mutable ""
par Tictoc2.switch[0].peer_gate$o[11].channel delay 0.1s
attr mutable ""
attr unit s
par Tictoc2.peer[11].gate$o[0].channel typename "\"Tictoc2.Channel\""
par Tictoc2.peer[11].gate$o[0].channel disabled false
attr mutable ""
par Tictoc2.peer[11].gate$o[0].channel delay 0.1s
attr mutable ""
attr unit s
par Tictoc2.switch[0].peer_gate$o[12].channel typename "\"Tictoc2.Channel\""
par Tictoc2.switch[0].peer_gate$o[12].channel disabled false
attr mutable ""
par Tictoc2.switch[0].peer_gate$o[12].channel delay 0.1s
attr mutable ""
attr unit s
par Tictoc2.peer[12].gate$o[0].channel typename "\"Tictoc2.Channel\""
par Tictoc2.peer[12].gate$o[0].channel disabled false
attr mutable ""
par Tictoc2.peer[12].gate$o[0].channel delay 0.1s
attr mutable ""
attr unit s
par Tictoc2.switch[0].peer_gate$o[13].channel typename "\"Tictoc2.Channel\""
par Tictoc2.switch[0].peer_gate$o[13].channel disabled false
attr mutable ""
par Tictoc2.switch[0].peer_gate$o[13].channel delay 0.1s
attr mutable ""
attr unit s
par Tictoc2.peer[13].gate$o[0].channel typename "\"Tictoc2.Channel\""
par Tictoc2.peer[13].gate$o[0].channel disabled false
attr mutable ""
par Tictoc2.peer[13].gate$o[0].channel delay 0.1s
attr mutable ""
attr unit s
par Tictoc2.switch[0].peer_gate$o[14].channel typename "\"Tictoc2.Channel\""
par Tictoc2.switch[0].peer_gate$o[14].channel disabled false
attr mutable ""
par Tictoc2.switch[0].peer_gate$o[14].channel delay 0.1s
attr mutable ""
attr unit s
par Tictoc2.peer[14].gate$o[0].channel typename "\"Tictoc2.Channel\""
par Tictoc2.peer[14].gate$o[0].channel disabled false
attr mutable ""
par Tictoc2.peer[14].gate$o[0].channel delay 0.1s
attr mutable ""
attr unit s
par Tictoc2.switch[0].peer_gate$o[15].channel typename "\"Tictoc2.Channel\""
par Tictoc2.switch[0].peer_gate$o[15].channel disabled false
attr mutable ""
par Tictoc2.switch[0].peer_gate$o[15].channel delay 0.1s
attr mutable ""
attr unit s
par Tictoc2.peer[15].gate$o[0].channel typename "\"Tictoc2.Channel\""
par Tictoc2.peer[15].gate$o[0].channel disabled false
attr mutable ""
par Tictoc2.peer[15].gate$o[0].channel delay 0.1s
attr mutable ""
attr unit s
par Tictoc2.switch[0].peer_gate$o[16].channel typename "\"Tictoc2.Channel\""
par Tictoc2.switch[0].peer_gate$o[16].channel disabled false
attr mutable ""
par Tictoc2.switch[0].peer_gate$o[16].channel delay 0.1s
attr mutable ""
attr unit s
par Tictoc2.peer[16].gate$o[0].channel typename "\"Tictoc2.Channel\""
par Tictoc2.peer[16].gate$o[0].channel disabled false
attr mutable ""
par Tictoc2.peer[16].gate$o[0].channel delay 0.1s
attr mutable ""
attr unit s
par Tictoc2.switch[0].peer_gate$o[17].channel typename "\"Tictoc2.Channel\""
par Tictoc2.switch[0].peer_gate$o[17].channel disabled false
attr mutable ""
par Tictoc2.switch[0].peer_gate$o[17].channel delay 0.1s
attr mutable ""
attr unit s
par Tictoc2.peer[17].gate$o[0].channel typename "\"Tictoc2.Channel\""
par Tictoc2.peer[17].gate$o[0].channel disabled false
attr mutable ""
par Tictoc2.peer[17].gate$o[0].channel delay 0.1s
attr mutable ""
attr unit s
par Tictoc2.switch[0].peer_gate$o[18].channel typename "\"Tictoc2.Channel\""
par Tictoc2.switch[0].peer_gate$o[18].channel disabled false
attr mutable ""
par Tictoc2.switch[0].peer_gate$o[18].channel delay 0.1s
attr mutable ""
attr unit s
par Tictoc2.peer[18].gate$o[0].channel typename "\"Tictoc2.Channel\""
par Tictoc2.peer[18].gate$o[0].channel disabled false
attr mutable ""
par Tictoc2.peer[18].gate$o[0].channel delay 0.1s
attr mutable ""
attr unit s
par Tictoc2.switch[0].peer_gate$o[19].channel typename "\"Tictoc2.Channel\""
par Tictoc2.switch[0].peer_gate$o[19].channel disabled false
attr mutable ""
par Tictoc2.switch[0].peer_gate$o[19].channel delay 0.1s
attr mutable ""
attr unit s
par Tictoc2.peer[19].gate$o[0].channel typename "\"Tictoc2.Channel\""
par Tictoc2.peer[19].gate$o[0].channel disabled false
attr mutable ""
par Tictoc2.peer[19].gate$o[0].channel delay 0.1s
attr mutable ""
attr unit s
par Tictoc2.switch[0].peer_gate$o[20].channel typename "\"Tictoc2.Channel\""
par Tictoc2.switch[0].peer_gate$o[20].channel disabled false
attr mutable ""
par Tictoc2.switch[0].peer_gate$o[20].channel delay 0.1s
attr mutable ""
attr unit s
par Tictoc2.peer[20].gate$o[0].channel typename "\"Tictoc2.Channel\""
par Tictoc2.peer[20].gate$o[0].channel disabled false
attr mutable ""
par Tictoc2.peer[20].gate$o[0].channel delay 0.1s
attr mutable ""
attr unit s
par Tictoc2.switch[0].peer_gate$o[21].channel typename "\"Tictoc2.Channel\""
par Tictoc2.switch[0].peer_gate$o[21].channel disabled false
attr mutable ""
par Tictoc2.switch[0].peer_gate$o[21].channel delay 0.1s
attr mutable ""
attr unit s
par Tictoc2.peer[21].gate$o[0].channel typename "\"Tictoc2.Channel\""
par Tictoc2.peer[21].gate$o[0].channel disabled false
attr mutable ""
par Tictoc2.peer[21].gate$o[0].channel delay 0.1s
attr mutable ""
attr unit s
par Tictoc2.switch[0].peer_gate$o[22].channel typename "\"Tictoc2.Channel\""
par Tictoc2.switch[0].peer_gate$o[22].channel disabled false
attr mutable ""
par Tictoc2.switch[0].peer_gate$o[22].channel delay 0.1s
attr mutable ""
attr unit s
par Tictoc2.peer[22].gate$o[0].channel typename "\"Tictoc2.Channel\""
par Tictoc2.peer[22].gate$o[0].channel disabled false
attr mutable ""
par Tictoc2.peer[22].gate$o[0].channel delay 0.1s
attr mutable ""
attr unit s
par Tictoc2.switch[0].peer_gate$o[23].channel typename "\"Tictoc2.Channel\""
par Tictoc2.switch[0].peer_gate$o[23].channel disabled false
attr mutable ""
par Tictoc2.switch[0].peer_gate$o[23].channel delay 0.1s
attr mutable ""
attr unit s
par Tictoc2.peer[23].gate$o[0].channel typename "\"Tictoc2.Channel\""
par Tictoc2.peer[23].gate$o[0].channel disabled false
attr mutable ""
par Tictoc2.peer[23].gate$o[0].channel delay 0.1s
attr mutable ""
attr unit s
par Tictoc2.switch[0].peer_gate$o[24].channel typename "\"Tictoc2.Channel\""
par Tictoc2.switch[0].peer_gate$o[24].channel disabled false
attr mutable ""
par Tictoc2.switch[0].peer_gate$o[24].channel delay 0.1s
attr mutable ""
attr unit s
par Tictoc2.peer[24].gate$o[0].channel typename "\"Tictoc2.Channel\""
par Tictoc2.peer[24].gate$o[0].channel disabled false
attr mutable ""
par Tictoc2.peer[24].gate$o[0].channel delay 0.1s
attr mutable ""
attr unit s
par Tictoc2.switch[0].peer_gate$o[25].channel typename "\"Tictoc2.Channel\""
par Tictoc2.switch[0].peer_gate$o[25].channel disabled false
attr mutable ""
par Tictoc2.switch[0].peer_gate$o[25].channel delay 0.1s
attr mutable ""
attr unit s
par Tictoc2.peer[25].gate$o[0].channel typename "\"Tictoc2.Channel\""
par Tictoc2.peer[25].gate$o[0].channel disabled false
attr mutable ""
par Tictoc2.peer[25].gate$o[0].channel delay 0.1s
attr mutable ""
attr unit s
par Tictoc2.switch[0].peer_gate$o[26].channel typename "\"Tictoc2.Channel\""
par Tictoc2.switch[0].peer_gate$o[26].channel disabled false
attr mutable ""
par Tictoc2.switch[0].peer_gate$o[26].channel delay 0.1s
attr mutable ""
attr unit s
par Tictoc2.peer[26].gate$o[0].channel typename "\"Tictoc2.Channel\""
par Tictoc2.peer[26].gate$o[0].channel disabled false
attr mutable ""
par Tictoc2.peer[26].gate$o[0].channel delay 0.1s
attr mutable ""
attr unit s
par Tictoc2.switch[0].peer_gate$o[27].channel typename "\"Tictoc2.Channel\""
par Tictoc2.switch[0].peer_gate$o[27].channel disabled false
attr mutable ""
par Tictoc2.switch[0].peer_gate$o[27].channel delay 0.1s
attr mutable ""
attr unit s
par Tictoc2.peer[27].gate$o[0].channel typename "\"Tictoc2.Channel\""
par Tictoc2.peer[27].gate$o[0].channel disabled false
attr mutable ""
par Tictoc2.peer[27].gate$o[0].channel delay 0.1s
attr mutable ""
attr unit s
par Tictoc2.switch[0].peer_gate$o[28].channel typename "\"Tictoc2.Channel\""
par Tictoc2.switch[0].peer_gate$o[28].channel disabled false
attr mutable ""
par Tictoc2.switch[0].peer_gate$o[28].channel delay 0.1s
attr mutable ""
attr unit s
par Tictoc2.peer[28].gate$o[0].channel typename "\"Tictoc2.Channel\""
par Tictoc2.peer[28].gate$o[0].channel disabled false
attr mutable ""
par Tictoc2.peer[28].gate$o[0].channel delay 0.1s
attr mutable ""
attr unit s
par Tictoc2.switch[0].peer_gate$o[29].channel typename "\"Tictoc2.Channel\""
par Tictoc2.switch[0].peer_gate$o[29].channel disabled false
attr mutable ""
par Tictoc2.switch[0].peer_gate$o[29].channel delay 0.1s
attr mutable ""
attr unit s
par Tictoc2.peer[29].gate$o[0].channel typename "\"Tictoc2.Channel\""
par Tictoc2.peer[29].gate$o[0].channel disabled false
attr mutable ""
par Tictoc2.peer[29].gate$o[0].channel delay 0.1s
attr mutable ""
attr unit s
par Tictoc2.switch[0].peer_gate$o[30].channel typename "\"Tictoc2.Channel\""
par Tictoc2.switch[0].peer_gate$o[30].channel disabled false
attr mutable ""
par Tictoc2.switch[0].peer_gate$o[30].channel delay 0.1s
attr mutable ""
attr unit s
par Tictoc2.peer[30].gate$o[0].channel typename "\"Tictoc2.Channel\""
par Tictoc2.peer[30].gate$o[0].channel disabled false
attr mutable ""
par Tictoc2.peer[30].gate$o[0].channel delay 0.1s
attr mutable ""
attr unit s
par Tictoc2.switch[0].peer_gate$o[31].channel typename "\"Tictoc2.Channel\""
par Tictoc2.switch[0].peer_gate$o[31].channel disabled false
attr mutable ""
par Tictoc2.switch[0].peer_gate$o[31].channel delay 0.1s
attr mutable ""
attr unit s
par Tictoc2.peer[31].gate$o[0].channel typename "\"Tictoc2.Channel\""
par Tictoc2.peer[31].gate$o[0].channel disabled false
attr mutable ""
par Tictoc2.peer[31].gate$o[0].channel delay 0.1s
attr mutable ""
attr unit s
par Tictoc2.switch[0].peer_gate$o[32].channel typename "\"Tictoc2.Channel\""
par Tictoc2.switch[0].peer_gate$o[32].channel disabled false
attr mutable ""
par Tictoc2.switch[0].peer_gate$o[32].channel delay 0.1s
attr mutable ""
attr unit s
par Tictoc2.peer[32].gate$o[0].channel typename "\"Tictoc2.Channel\""
par Tictoc2.peer[32].gate$o[0].channel disabled false
attr mutable ""
par Tictoc2.peer[32].gate$o[0].channel delay 0.1s
attr mutable ""
attr unit s
par Tictoc2.switch[0].peer_gate$o[33].channel typename "\"Tictoc2.Channel\""
par Tictoc2.switch[0].peer_gate$o[33].channel disabled false
attr mutable ""
par Tictoc2.switch[0].peer_gate$o[33].channel delay 0.1s
attr mutable ""
attr unit s
par Tictoc2.peer[33].gate$o[0].channel typename "\"Tictoc2.Channel\""
par Tictoc2.peer[33].gate$o[0].channel disabled false
attr mutable ""
par Tictoc2.peer[33].gate$o[0].channel delay 0.1s
attr mutable ""
attr unit s
par Tictoc2.switch[0].peer_gate$o[34].channel typename "\"Tictoc2.Channel\""
par Tictoc2.switch[0].peer_gate$o[34].channel disabled false
attr mutable ""
par Tictoc2.switch[0].peer_gate$o[34].channel delay 0.1s
attr mutable ""
attr unit s
par Tictoc2.peer[34].gate$o[0].channel typename "\"Tictoc2.Channel\""
par Tictoc2.peer[34].gate$o[0].channel disabled false
attr mutable ""
par Tictoc2.peer[34].gate$o[0].channel delay 0.1s
attr mutable ""
attr unit s
par Tictoc2.switch[0].peer_gate$o[35].channel typename "\"Tictoc2.Channel\""
par Tictoc2.switch[0].peer_gate$o[35].channel disabled false
attr mutable ""
par Tictoc2.switch[0].peer_gate$o[35].channel delay 0.1s
attr mutable ""
attr unit s
par Tictoc2.peer[35].gate$o[0].channel typename "\"Tictoc2.Channel\""
par Tictoc2.peer[35].gate$o[0].channel disabled false
attr mutable ""
par Tictoc2.peer[35].gate$o[0].channel delay 0.1s
attr mutable ""
attr unit s
par Tictoc2.switch[0].peer_gate$o[36].channel typename "\"Tictoc2.Channel\""
par Tictoc2.switch[0].peer_gate$o[36].channel disabled false
attr mutable ""
par Tictoc2.switch[0].peer_gate$o[36].channel delay 0.1s
attr mutable ""
attr unit s
par Tictoc2.peer[36].gate$o[0].channel typename "\"Tictoc2.Channel\""
par Tictoc2.peer[36].gate$o[0].channel disabled false
attr mutable ""
par Tictoc2.peer[36].gate$o[0].channel delay 0.1s
attr mutable ""
attr unit s
par Tictoc2.switch[0].peer_gate$o[37].channel typename "\"Tictoc2.Channel\""
par Tictoc2.switch[0].peer_gate$o[37].channel disabled false
attr mutable ""
par Tictoc2.switch[0].peer_gate$o[37].channel delay 0.1s
attr mutable ""
attr unit s
par Tictoc2.peer[37].gate$o[0].channel typename "\"Tictoc2.Channel\""
par Tictoc2.peer[37].gate$o[0].channel disabled false
attr mutable ""
par Tictoc2.peer[37].gate$o[0].channel delay 0.1s
attr mutable ""
attr unit s
par Tictoc2.switch[0].peer_gate$o[38].channel typename "\"Tictoc2.Channel\""
par Tictoc2.switch[0].peer_gate$o[38].channel disabled false
attr mutable ""
par Tictoc2.switch[0].peer_gate$o[38].channel delay 0.1s
attr mutable ""
attr unit s
par Tictoc2.peer[38].gate$o[0].channel typename "\"Tictoc2.Channel\""
par Tictoc2.peer[38].gate$o[0].channel disabled false
attr mutable ""
par Tictoc2.peer[38].gate$o[0].channel delay 0.1s
attr mutable ""
attr unit s
par Tictoc2.switch[0].peer_gate$o[39].channel typename "\"Tictoc2.Channel\""
par Tictoc2.switch[0].peer_gate$o[39].channel disabled false
attr mutable ""
par Tictoc2.switch[0].peer_gate$o[39].channel delay 0.1s
attr mutable ""
attr unit s
par Tictoc2.peer[39].gate$o[0].channel typename "\"Tictoc2.Channel\""
par Tictoc2.peer[39].gate$o[0].channel disabled false
attr mutable ""
par Tictoc2.peer[39].gate$o[0].channel delay 0.1s
attr mutable ""
attr unit s
par Tictoc2.switch[0].peer_gate$o[40].channel typename "\"Tictoc2.Channel\""
par Tictoc2.switch[0].peer_gate$o[40].channel disabled false
attr mutable ""
par Tictoc2.switch[0].peer_gate$o[40].channel delay 0.1s
attr mutable ""
attr unit s
par Tictoc2.peer[40].gate$o[0].channel typename "\"Tictoc2.Channel\""
par Tictoc2.peer[40].gate$o[0].channel disabled false
attr mutable ""
par Tictoc2.peer[40].gate$o[0].channel delay 0.1s
attr mutable ""
attr unit s
par Tictoc2.switch[0].peer_gate$o[41].channel typename "\"Tictoc2.Channel\""
par Tictoc2.switch[0].peer_gate$o[41].channel disabled false
attr mutable ""
par Tictoc2.switch[0].peer_gate$o[41].channel delay 0.1s
attr mutable ""
attr unit s
par Tictoc2.peer[41].gate$o[0].channel typename "\"Tictoc2.Channel\""
par Tictoc2.peer[41].gate$o[0].channel disabled false
attr mutable ""
par Tictoc2.peer[41].gate$o[0].channel delay 0.1s
attr mutable ""
attr unit s
par Tictoc2.switch[0].peer_gate$o[42].channel typename "\"Tictoc2.Channel\""
par Tictoc2.switch[0].peer_gate$o[42].channel disabled false
attr mutable ""
par Tictoc2.switch[0].peer_gate$o[42].channel delay 0.1s
attr mutable ""
attr unit s
par Tictoc2.peer[42].gate$o[0].channel typename "\"Tictoc2.Channel\""
par Tictoc2.peer[42].gate$o[0].channel disabled false
attr mutable ""
par Tictoc2.peer[42].gate$o[0].channel delay 0.1s
attr mutable ""
attr unit s
par Tictoc2.switch[0].peer_gate$o[43].channel typename "\"Tictoc2.Channel\""
par Tictoc2.switch[0].peer_gate$o[43].channel disabled false
attr mutable ""
par Tictoc2.switch[0].peer_gate$o[43].channel delay 0.1s
attr mutable ""
attr unit s
par Tictoc2.peer[43].gate$o[0].channel typename "\"Tictoc2.Channel\""
par Tictoc2.peer[43].gate$o[0].channel disabled false
attr mutable ""
par Tictoc2.peer[43].gate$o[0].channel delay 0.1s
attr mutable ""
attr unit s
par Tictoc2.switch[0].peer_gate$o[44].channel typename "\"Tictoc2.Channel\""
par Tictoc2.switch[0].peer_gate$o[44].channel disabled false
attr mutable ""
par Tictoc2.switch[0].peer_gate$o[44].channel delay 0.1s
attr mutable ""
attr unit s
par Tictoc2.peer[44].gate$o[0].channel typename "\"Tictoc2.Channel\""
par Tictoc2.peer[44].gate$o[0].channel disabled false
attr mutable ""
par Tictoc2.peer[44].gate$o[0].channel delay 0.1s
attr mutable ""
attr unit s
par Tictoc2.switch[0].peer_gate$o[45].channel typename "\"Tictoc2.Channel\""
par Tictoc2.switch[0].peer_gate$o[45].channel disabled false
attr mutable ""
par Tictoc2.switch[0].peer_gate$o[45].channel delay 0.1s
attr mutable ""
attr unit s
par Tictoc2.peer[45].gate$o[0].channel typename "\"Tictoc2.Channel\""
par Tictoc2.peer[45].gate$o[0].channel disabled false
attr mutable ""
par Tictoc2.peer[45].gate$o[0].channel delay 0.1s
attr mutable ""
attr unit s
par Tictoc2.switch[0].peer_gate$o[46].channel typename "\"Tictoc2.Channel\""
par Tictoc2.switch[0].peer_gate$o[46].channel disabled false
attr mutable ""
par Tictoc2.switch[0].peer_gate$o[46].channel delay 0.1s
attr mutable ""
attr unit s
par Tictoc2.peer[46].gate$o[0].channel typename "\"Tictoc2.Channel\""
par Tictoc2.peer[46].gate$o[0].channel disabled false
attr mutable ""
par Tictoc2.peer[46].gate$o[0].channel delay 0.1s
attr mutable ""
attr unit s
par Tictoc2.switch[0].peer_gate$o[47].channel typename "\"Tictoc2.Channel\""
par Tictoc2.switch[0].peer_gate$o[47].channel disabled false
attr mutable ""
par Tictoc2.switch[0].peer_gate$o[47].channel delay 0.1s
attr mutable ""
attr unit s
par Tictoc2.peer[47].gate$o[0].channel typename "\"Tictoc2.Channel\""
par Tictoc2.peer[47].gate$o[0].channel disabled false
attr mutable ""
par Tictoc2.peer[47].gate$o[0].channel delay 0.1s
attr mutable ""
attr unit s
par Tictoc2.switch[0].peer_gate$o[48].channel typename "\"Tictoc2.Channel\""
par Tictoc2.switch[0].peer_gate$o[48].channel disabled false
attr mutable ""
par Tictoc2.switch[0].peer_gate$o[48].channel delay 0.1s
attr mutable ""
attr unit s
par Tictoc2.peer[48].gate$o[0].channel typename "\"Tictoc2.Channel\""
par Tictoc2.peer[48].gate$o[0].channel disabled false
attr mutable ""
par Tictoc2.peer[48].gate$o[0].channel delay 0.1s
attr mutable ""
attr unit s
par Tictoc2.switch[0].peer_gate$o[49].channel typename "\"Tictoc2.Channel\""
par Tictoc2.switch[0].peer_gate$o[49].channel disabled false
attr mutable ""
par Tictoc2.switch[0].peer_gate$o[49].channel delay 0.1s
attr mutable ""
attr unit s
par Tictoc2.peer[49].gate$o[0].channel typename "\"Tictoc2.Channel\""
par Tictoc2.peer[49].gate$o[0].channel disabled false
attr mutable ""
par Tictoc2.peer[49].gate$o[0].channel delay 0.1s
attr mutable ""
attr unit s
par Tictoc2.switch[0].peer_gate$o[50].channel typename "\"Tictoc2.Channel\""
par Tictoc2.switch[0].peer_gate$o[50].channel disabled false
attr mutable ""
par Tictoc2.switch[0].peer_gate$o[50].channel delay 0.1s
attr mutable ""
attr unit s
par Tictoc2.peer[50].gate$o[0].channel typename "\"Tictoc2.Channel\""
par Tictoc2.peer[50].gate$o[0].channel disabled false
attr mutable ""
par Tictoc2.peer[50].gate$o[0].channel delay 0.1s
attr mutable ""
attr unit s
par Tictoc2.switch[0].peer_gate$o[51].channel typename "\"Tictoc2.Channel\""
par Tictoc2.switch[0].peer_gate$o[51].channel disabled false
attr mutable ""
par Tictoc2.switch[0].peer_gate$o[51].channel delay 0.1s
attr mutable ""
attr unit s
par Tictoc2.peer[51].gate$o[0].channel typename "\"Tictoc2.Channel\""
par Tictoc2.peer[51].gate$o[0].channel disabled false
attr mutable ""
par Tictoc2.peer[51].gate$o[0].channel delay 0.1s
attr mutable ""
attr unit s
par Tictoc2.switch[0].peer_gate$o[52].channel typename "\"Tictoc2.Channel\""
par Tictoc2.switch[0].peer_gate$o[52].channel disabled false
attr mutable ""
par Tictoc2.switch[0].peer_gate$o[52].channel delay 0.1s
attr mutable ""
attr unit s
par Tictoc2.peer[52].gate$o[0].channel typename "\"Tictoc2.Channel\""
par Tictoc2.peer[52].gate$o[0].channel disabled false
attr mutable ""
par Tictoc2.peer[52].gate$o[0].channel delay 0.1s
attr mutable ""
attr unit s
par Tictoc2.switch[0].peer_gate$o[53].channel typename "\"Tictoc2.Channel\""
par Tictoc2.switch[0].peer_gate$o[53].channel disabled false
attr mutable ""
par Tictoc2.switch[0].peer_gate$o[53].channel delay 0.1s
attr mutable ""
attr unit s
par Tictoc2.peer[53].gate$o[0].channel typename "\"Tictoc2.Channel\""
par Tictoc2.peer[53].gate$o[0].channel disabled false
attr mutable ""
par Tictoc2.peer[53].gate$o[0].channel delay 0.1s
attr mutable ""
attr unit s
par Tictoc2.switch[0].peer_gate$o[54].channel typename "\"Tictoc2.Channel\""
par Tictoc2.switch[0].peer_gate$o[54].channel disabled false
attr mutable ""
par Tictoc2.switch[0].peer_gate$o[54].channel delay 0.1s
attr mutable ""
attr unit s
par Tictoc2.peer[54].gate$o[0].channel typename "\"Tictoc2.Channel\""
par Tictoc2.peer[54].gate$o[0].channel disabled false
attr mutable ""
par Tictoc2.peer[54].gate$o[0].channel delay 0.1s
attr mutable ""
attr unit s
par Tictoc2.switch[0].peer_gate$o[55].channel typename "\"Tictoc2.Channel\""
par Tictoc2.switch[0].peer_gate$o[55].channel disabled false
attr mutable ""
par Tictoc2.switch[0].peer_gate$o[55].channel delay 0.1s
attr mutable ""
attr unit s
par Tictoc2.peer[55].gate$o[0].channel typename "\"Tictoc2.Channel\""
par Tictoc2.peer[55].gate$o[0].channel disabled false
attr mutable ""
par Tictoc2.peer[55].gate$o[0].channel delay 0.1s
attr mutable ""
attr unit s
par Tictoc2.switch[0].peer_gate$o[56].channel typename "\"Tictoc2.Channel\""
par Tictoc2.switch[0].peer_gate$o[56].channel disabled false
attr mutable ""
par Tictoc2.switch[0].peer_gate$o[56].channel delay 0.1s
attr mutable ""
attr unit s
par Tictoc2.peer[56].gate$o[0].channel typename "\"Tictoc2.Channel\""
par Tictoc2.peer[56].gate$o[0].channel disabled false
attr mutable ""
par Tictoc2.peer[56].gate$o[0].channel delay 0.1s
attr mutable ""
attr unit s
par Tictoc2.switch[0].peer_gate$o[57].channel typename "\"Tictoc2.Channel\""
par Tictoc2.switch[0].peer_gate$o[57].channel disabled false
attr mutable ""
par Tictoc2.switch[0].peer_gate$o[57].channel delay 0.1s
attr mutable ""
attr unit s
par Tictoc2.peer[57].gate$o[0].channel typename "\"Tictoc2.Channel\""
par Tictoc2.peer[57].gate$o[0].channel disabled false
attr mutable ""
par Tictoc2.peer[57].gate$o[0].channel delay 0.1s
attr mutable ""
attr unit s
par Tictoc2.switch[0].peer_gate$o[58].channel typename "\"Tictoc2.Channel\""
par Tictoc2.switch[0].peer_gate$o[58].channel disabled false
attr mutable ""
par Tictoc2.switch[0].peer_gate$o[58].channel delay 0.1s
attr mutable ""
attr unit s
par Tictoc2.peer[58].gate$o[0].channel typename "\"Tictoc2.Channel\""
par Tictoc2.peer[58].gate$o[0].channel disabled false
attr mutable ""
par Tictoc2.peer[58].gate$o[0].channel delay 0.1s
attr mutable ""
attr unit s
par Tictoc2.switch[0].peer_gate$o[59].channel typename "\"Tictoc2.Channel\""
par Tictoc2.switch[0].peer_gate$o[59].channel disabled false
attr mutable ""
par Tictoc2.switch[0].peer_gate$o[59].channel delay 0.1s
attr mutable ""
attr unit s
par Tictoc2.peer[59].gate$o[0].channel typename "\"Tictoc2.Channel\""
par Tictoc2.peer[59].gate$o[0].channel disabled false
attr mutable ""
par Tictoc2.peer[59].gate$o[0].channel delay 0.1s
attr mutable ""
attr unit s
par Tictoc2.switch[0].peer_gate$o[60].channel typename "\"Tictoc2.Channel\""
par Tictoc2.switch[0].peer_gate$o[60].channel disabled false
attr mutable ""
par Tictoc2.switch[0].peer_gate$o[60].channel delay 0.1s
attr mutable ""
attr unit s
par Tictoc2.peer[60].gate$o[0].channel typename "\"Tictoc2.Channel\""
par Tictoc2.peer[60].gate$o[0].channel disabled false
attr mutable ""
par Tictoc2.peer[60].gate$o[0].channel delay 0.1s
attr mutable ""
attr unit s
par Tictoc2.switch[0].peer_gate$o[61].channel typename "\"Tictoc2.Channel\""
par Tictoc2.switch[0].peer_gate$o[61].channel disabled false
attr mutable ""
par Tictoc2.switch[0].peer_gate$o[61].channel delay 0.1s
attr mutable ""
attr unit s
par Tictoc2.peer[61].gate$o[0].channel typename "\"Tictoc2.Channel\""
par Tictoc2.peer[61].gate$o[0].channel disabled false
attr mutable ""
par Tictoc2.peer[61].gate$o[0].channel delay 0.1s
attr mutable ""
attr unit s
par Tictoc2.switch[0].peer_gate$o[62].channel typename "\"Tictoc2.Channel\""
par Tictoc2.switch[0].peer_gate$o[62].channel disabled false
attr mutable ""
par Tictoc2.switch[0].peer_gate$o[62].channel delay 0.1s
attr mutable ""
attr unit s
par Tictoc2.peer[62].gate$o[0].channel typename "\"Tictoc2.Channel\""
par Tictoc2.peer[62].gate$o[0].channel disabled false
attr mutable ""
par Tictoc2.peer[62].gate$o[0].channel delay 0.1s
attr mutable ""
attr unit s
par Tictoc2.switch[0].peer_gate$o[63].channel typename "\"Tictoc2.Channel\""
par Tictoc2.switch[0].peer_gate$o[63].channel disabled false
attr mutable ""
par Tictoc2.switch[0].peer_gate$o[63].channel delay 0.1s
attr mutable ""
attr unit s
par Tictoc2.peer[63].gate$o[0].channel typename "\"Tictoc2.Channel\""
par Tictoc2.peer[63].gate$o[0].channel disabled false
attr mutable ""
par Tictoc2.peer[63].gate$o[0].channel delay 0.1s
attr mutable ""
attr unit s
par Tictoc2.switch[0].peer_gate$o[64].channel typename "\"Tictoc2.Channel\""
par Tictoc2.switch[0].peer_gate$o[64].channel disabled false
attr mutable ""
par Tictoc2.switch[0].peer_gate$o[64].channel delay 0.1s
attr mutable ""
attr unit s
par Tictoc2.peer[64].gate$o[0].channel typename "\"Tictoc2.Channel\""
par Tictoc2.peer[64].gate$o[0].channel disabled false
attr mutable ""
par Tictoc2.peer[64].gate$o[0].channel delay 0.1s
attr mutable ""
attr unit s
par Tictoc2.switch[0].peer_gate$o[65].channel typename "\"Tictoc2.Channel\""
par Tictoc2.switch[0].peer_gate$o[65].channel disabled false
attr mutable ""
par Tictoc2.switch[0].peer_gate$o[65].channel delay 0.1s
attr mutable ""
attr unit s
par Tictoc2.peer[65].gate$o[0].channel typename "\"Tictoc2.Channel\""
par Tictoc2.peer[65].gate$o[0].channel disabled false
attr mutable ""
par Tictoc2.peer[65].gate$o[0].channel delay 0.1s
attr mutable ""
attr unit s
par Tictoc2.switch[0].peer_gate$o[66].channel typename "\"Tictoc2.Channel\""
par Tictoc2.switch[0].peer_gate$o[66].channel disabled false
attr mutable ""
par Tictoc2.switch[0].peer_gate$o[66].channel delay 0.1s
attr mutable ""
attr unit s
par Tictoc2.peer[66].gate$o[0].channel typename "\"Tictoc2.Channel\""
par Tictoc2.peer[66].gate$o[0].channel disabled false
attr mutable ""
par Tictoc2.peer[66].gate$o[0].channel delay 0.1s
attr mutable ""
attr unit s
par Tictoc2.switch[0].peer_gate$o[67].channel typename "\"Tictoc2.Channel\""
par Tictoc2.switch[0].peer_gate$o[67].channel disabled false
attr mutable ""
par Tictoc2.switch[0].peer_gate$o[67].channel delay 0.1s
attr mutable ""
attr unit s
par Tictoc2.peer[67].gate$o[0].channel typename "\"Tictoc2.Channel\""
par Tictoc2.peer[67].gate$o[0].channel disabled false
attr mutable ""
par Tictoc2.peer[67].gate$o[0].channel delay 0.1s
attr mutable ""
attr unit s
par Tictoc2.switch[0].peer_gate$o[68].channel typename "\"Tictoc2.Channel\""
par Tictoc2.switch[0].peer_gate$o[68].channel disabled false
attr mutable ""
par Tictoc2.switch[0].peer_gate$o[68].channel delay 0.1s
attr mutable ""
attr unit s
par Tictoc2.peer[68].gate$o[0].channel typename "\"Tictoc2.Channel\""
par Tictoc2.peer[68].gate$o[0].channel disabled false
attr mutable ""
par Tictoc2.peer[68].gate$o[0].channel delay 0.1s
attr mutable ""
attr unit s
par Tictoc2.switch[0].peer_gate$o[69].channel typename "\"Tictoc2.Channel\""
par Tictoc2.switch[0].peer_gate$o[69].channel disabled false
attr mutable ""
par Tictoc2.switch[0].peer_gate$o[69].channel delay 0.1s
attr mutable ""
attr unit s
par Tictoc2.peer[69].gate$o[0].channel typename "\"Tictoc2.Channel\""
par Tictoc2.peer[69].gate$o[0].channel disabled false
attr mutable ""
par Tictoc2.peer[69].gate$o[0].channel delay 0.1s
attr mutable ""
attr unit s
par Tictoc2.switch[0].peer_gate$o[70].channel typename "\"Tictoc2.Channel\""
par Tictoc2.switch[0].peer_gate$o[70].channel disabled false
attr mutable ""
par Tictoc2.switch[0].peer_gate$o[70].channel delay 0.1s
attr mutable ""
attr unit s
par Tictoc2.peer[70].gate$o[0].channel typename "\"Tictoc2.Channel\""
par Tictoc2.peer[70].gate$o[0].channel disabled false
attr mutable ""
par Tictoc2.peer[70].gate$o[0].channel delay 0.1s
attr mutable ""
attr unit s
par Tictoc2.switch[0].peer_gate$o[71].channel typename "\"Tictoc2.Channel\""
par Tictoc2.switch[0].peer_gate$o[71].channel disabled false
attr mutable ""
par Tictoc2.switch[0].peer_gate$o[71].channel delay 0.1s
attr mutable ""
attr unit s
par Tictoc2.peer[71].gate$o[0].channel typename "\"Tictoc2.Channel\""
par Tictoc2.peer[71].gate$o[0].channel disabled false
attr mutable ""
par Tictoc2.peer[71].gate$o[0].channel delay 0.1s
attr mutable ""
attr unit s
par Tictoc2.switch[0].peer_gate$o[72].channel typename "\"Tictoc2.Channel\""
par Tictoc2.switch[0].peer_gate$o[72].channel disabled false
attr mutable ""
par Tictoc2.switch[0].peer_gate$o[72].channel delay 0.1s
attr mutable ""
attr unit s
par Tictoc2.peer[72].gate$o[0].channel typename "\"Tictoc2.Channel\""
par Tictoc2.peer[72].gate$o[0].channel disabled false
attr mutable ""
par Tictoc2.peer[72].gate$o[0].channel delay 0.1s
attr mutable ""
attr unit s
par Tictoc2.switch[0].peer_gate$o[73].channel typename "\"Tictoc2.Channel\""
par Tictoc2.switch[0].peer_gate$o[73].channel disabled false
attr mutable ""
par Tictoc2.switch[0].peer_gate$o[73].channel delay 0.1s
attr mutable ""
attr unit s
par Tictoc2.peer[73].gate$o[0].channel typename "\"Tictoc2.Channel\""
par Tictoc2.peer[73].gate$o[0].channel disabled false
attr mutable ""
par Tictoc2.peer[73].gate$o[0].channel delay 0.1s
attr mutable ""
attr unit s
par Tictoc2.switch[0].peer_gate$o[74].channel typename "\"Tictoc2.Channel\""
par Tictoc2.switch[0].peer_gate$o[74].channel disabled false
attr mutable ""
par Tictoc2.switch[0].peer_gate$o[74].channel delay 0.1s
attr mutable ""
attr unit s
par Tictoc2.peer[74].gate$o[0].channel typename "\"Tictoc2.Channel\""
par Tictoc2.peer[74].gate$o[0].channel disabled false
attr mutable ""
par Tictoc2.peer[74].gate$o[0].channel delay 0.1s
attr mutable ""
attr unit s
par Tictoc2.switch[0].peer_gate$o[75].channel typename "\"Tictoc2.Channel\""
par Tictoc2.switch[0].peer_gate$o[75].channel disabled false
attr mutable ""
par Tictoc2.switch[0].peer_gate$o[75].channel delay 0.1s
attr mutable ""
attr unit s
par Tictoc2.peer[75].gate$o[0].channel typename "\"Tictoc2.Channel\""
par Tictoc2.peer[75].gate$o[0].channel disabled false
attr mutable ""
par Tictoc2.peer[75].gate$o[0].channel delay 0.1s
attr mutable ""
attr unit s
par Tictoc2.switch[0].peer_gate$o[76].channel typename "\"Tictoc2.Channel\""
par Tictoc2.switch[0].peer_gate$o[76].channel disabled false
attr mutable ""
par Tictoc2.switch[0].peer_gate$o[76].channel delay 0.1s
attr mutable ""
attr unit s
par Tictoc2.peer[76].gate$o[0].channel typename "\"Tictoc2.Channel\""
par Tictoc2.peer[76].gate$o[0].channel disabled false
attr mutable ""
par Tictoc2.peer[76].gate$o[0].channel delay 0.1s
attr mutable ""
attr unit s
par Tictoc2.switch[0].peer_gate$o[77].channel typename "\"Tictoc2.Channel\""
par Tictoc2.switch[0].peer_gate$o[77].channel disabled false
attr mutable ""
par Tictoc2.switch[0].peer_gate$o[77].channel delay 0.1s
attr mutable ""
attr unit s
par Tictoc2.peer[77].gate$o[0].channel typename "\"Tictoc2.Channel\""
par Tictoc2.peer[77].gate$o[0].channel disabled false
attr mutable ""
par Tictoc2.peer[77].gate$o[0].channel delay 0.1s
attr mutable ""
attr unit s
par Tictoc2.switch[0].peer_gate$o[78].channel typename "\"Tictoc2.Channel\""
par Tictoc2.switch[0].peer_gate$o[78].channel disabled false
attr mutable ""
par Tictoc2.switch[0].peer_gate$o[78].channel delay 0.1s
attr mutable ""
attr unit s
par Tictoc2.peer[78].gate$o[0].channel typename "\"Tictoc2.Channel\""
par Tictoc2.peer[78].gate$o[0].channel disabled false
attr mutable ""
par Tictoc2.peer[78].gate$o[0].channel delay 0.1s
attr mutable ""
attr unit s
par Tictoc2.switch[0].peer_gate$o[79].channel typename "\"Tictoc2.Channel\""
par Tictoc2.switch[0].peer_gate$o[79].channel disabled false
attr mutable ""
par Tictoc2.switch[0].peer_gate$o[79].channel delay 0.1s
attr mutable ""
attr unit s
par Tictoc2.peer[79].gate$o[0].channel typename "\"Tictoc2.Channel\""
par Tictoc2.peer[79].gate$o[0].channel disabled false
attr mutable ""
par Tictoc2.peer[79].gate$o[0].channel delay 0.1s
attr mutable ""
attr unit s
par Tictoc2.switch[0].peer_gate$o[80].channel typename "\"Tictoc2.Channel\""
par Tictoc2.switch[0].peer_gate$o[80].channel disabled false
attr mutable ""
par Tictoc2.switch[0].peer_gate$o[80].channel delay 0.1s
attr mutable ""
attr unit s
par Tictoc2.peer[80].gate$o[0].channel typename "\"Tictoc2.Channel\""
par Tictoc2.peer[80].gate$o[0].channel disabled false
attr mutable ""
par Tictoc2.peer[80].gate$o[0].channel delay 0.1s
attr mutable ""
attr unit s
par Tictoc2.switch[0].peer_gate$o[81].channel typename "\"Tictoc2.Channel\""
par Tictoc2.switch[0].peer_gate$o[81].channel disabled false
attr mutable ""
par Tictoc2.switch[0].peer_gate$o[81].channel delay 0.1s
attr mutable ""
attr unit s
par Tictoc2.peer[81].gate$o[0].channel typename "\"Tictoc2.Channel\""
par Tictoc2.peer[81].gate$o[0].channel disabled false
attr mutable ""
par Tictoc2.peer[81].gate$o[0].channel delay 0.1s
attr mutable ""
attr unit s
par Tictoc2.switch[0].peer_gate$o[82].channel typename "\"Tictoc2.Channel\""
par Tictoc2.switch[0].peer_gate$o[82].channel disabled false
attr mutable ""
par Tictoc2.switch[0].peer_gate$o[82].channel delay 0.1s
attr mutable ""
attr unit s
par Tictoc2.peer[82].gate$o[0].channel typename "\"Tictoc2.Channel\""
par Tictoc2.peer[82].gate$o[0].channel disabled false
attr mutable ""
par Tictoc2.peer[82].gate$o[0].channel delay 0.1s
attr mutable ""
attr unit s
par Tictoc2.switch[0].peer_gate$o[83].channel typename "\"Tictoc2.Channel\""
par Tictoc2.switch[0].peer_gate$o[83].channel disabled false
attr mutable ""
par Tictoc2.switch[0].peer_gate$o[83].channel delay 0.1s
attr mutable ""
attr unit s
par Tictoc2.peer[83].gate$o[0].channel typename "\"Tictoc2.Channel\""
par Tictoc2.peer[83].gate$o[0].channel disabled false
attr mutable ""
par Tictoc2.peer[83].gate$o[0].channel delay 0.1s
attr mutable ""
attr unit s
par Tictoc2.switch[0].peer_gate$o[84].channel typename "\"Tictoc2.Channel\""
par Tictoc2.switch[0].peer_gate$o[84].channel disabled false
attr mutable ""
par Tictoc2.switch[0].peer_gate$o[84].channel delay 0.1s
attr mutable ""
attr unit s
par Tictoc2.peer[84].gate$o[0].channel typename "\"Tictoc2.Channel\""
par Tictoc2.peer[84].gate$o[0].channel disabled false
attr mutable ""
par Tictoc2.peer[84].gate$o[0].channel delay 0.1s
attr mutable ""
attr unit s
par Tictoc2.switch[0].peer_gate$o[85].channel typename "\"Tictoc2.Channel\""
par Tictoc2.switch[0].peer_gate$o[85].channel disabled false
attr mutable ""
par Tictoc2.switch[0].peer_gate$o[85].channel delay 0.1s
attr mutable ""
attr unit s
par Tictoc2.peer[85].gate$o[0].channel typename "\"Tictoc2.Channel\""
par Tictoc2.peer[85].gate$o[0].channel disabled false
attr mutable ""
par Tictoc2.peer[85].gate$o[0].channel delay 0.1s
attr mutable ""
attr unit s
par Tictoc2.switch[0].peer_gate$o[86].channel typename "\"Tictoc2.Channel\""
par Tictoc2.switch[0].peer_gate$o[86].channel disabled false
attr mutable ""
par Tictoc2.switch[0].peer_gate$o[86].channel delay 0.1s
attr mutable ""
attr unit s
par Tictoc2.peer[86].gate$o[0].channel typename "\"Tictoc2.Channel\""
par Tictoc2.peer[86].gate$o[0].channel disabled false
attr mutable ""
par Tictoc2.peer[86].gate$o[0].channel delay 0.1s
attr mutable ""
attr unit s
par Tictoc2.switch[0].peer_gate$o[87].channel typename "\"Tictoc2.Channel\""
par Tictoc2.switch[0].peer_gate$o[87].channel disabled false
attr mutable ""
par Tictoc2.switch[0].peer_gate$o[87].channel delay 0.1s
attr mutable ""
attr unit s
par Tictoc2.peer[87].gate$o[0].channel typename "\"Tictoc2.Channel\""
par Tictoc2.peer[87].gate$o[0].channel disabled false
attr mutable ""
par Tictoc2.peer[87].gate$o[0].channel delay 0.1s
attr mutable ""
attr unit s
par Tictoc2.switch[0].peer_gate$o[88].channel typename "\"Tictoc2.Channel\""
par Tictoc2.switch[0].peer_gate$o[88].channel disabled false
attr mutable ""
par Tictoc2.switch[0].peer_gate$o[88].channel delay 0.1s
attr mutable ""
attr unit s
par Tictoc2.peer[88].gate$o[0].channel typename "\"Tictoc2.Channel\""
par Tictoc2.peer[88].gate$o[0].channel disabled false
attr mutable ""
par Tictoc2.peer[88].gate$o[0].channel delay 0.1s
attr mutable ""
attr unit s
par Tictoc2.switch[0].peer_gate$o[89].channel typename "\"Tictoc2.Channel\""
par Tictoc2.switch[0].peer_gate$o[89].channel disabled false
attr mutable ""
par Tictoc2.switch[0].peer_gate$o[89].channel delay 0.1s
attr mutable ""
attr unit s
par Tictoc2.peer[89].gate$o[0].channel typename "\"Tictoc2.Channel\""
par Tictoc2.peer[89].gate$o[0].channel disabled false
attr mutable ""
par Tictoc2.peer[89].gate$o[0].channel delay 0.1s
attr mutable ""
attr unit s
par Tictoc2.switch[0].peer_gate$o[90].channel typename "\"Tictoc2.Channel\""
par Tictoc2.switch[0].peer_gate$o[90].channel disabled false
attr mutable ""
par Tictoc2.switch[0].peer_gate$o[90].channel delay 0.1s
attr mutable ""
attr unit s
par Tictoc2.peer[90].gate$o[0].channel typename "\"Tictoc2.Channel\""
par Tictoc2.peer[90].gate$o[0].channel disabled false
attr mutable ""
par Tictoc2.peer[90].gate$o[0].channel delay 0.1s
attr mutable ""
attr unit s
par Tictoc2.switch[0].peer_gate$o[91].channel typename "\"Tictoc2.Channel\""
par Tictoc2.switch[0].peer_gate$o[91].channel disabled false
attr mutable ""
par Tictoc2.switch[0].peer_gate$o[91].channel delay 0.1s
attr mutable ""
attr unit s
par Tictoc2.peer[91].gate$o[0].channel typename "\"Tictoc2.Channel\""
par Tictoc2.peer[91].gate$o[0].channel disabled false
attr mutable ""
par Tictoc2.peer[91].gate$o[0].channel delay 0.1s
attr mutable ""
attr unit s
par Tictoc2.switch[0].peer_gate$o[92].channel typename "\"Tictoc2.Channel\""
par Tictoc2.switch[0].peer_gate$o[92].channel disabled false
attr mutable ""
par Tictoc2.switch[0].peer_gate$o[92].channel delay 0.1s
attr mutable ""
attr unit s
par Tictoc2.peer[92].gate$o[0].channel typename "\"Tictoc2.Channel\""
par Tictoc2.peer[92].gate$o[0].channel disabled false
attr mutable ""
par Tictoc2.peer[92].gate$o[0].channel delay 0.1s
attr mutable ""
attr unit s
par Tictoc2.switch[0].peer_gate$o[93].channel typename "\"Tictoc2.Channel\""
par Tictoc2.switch[0].peer_gate$o[93].channel disabled false
attr mutable ""
par Tictoc2.switch[0].peer_gate$o[93].channel delay 0.1s
attr mutable ""
attr unit s
par Tictoc2.peer[93].gate$o[0].channel typename "\"Tictoc2.Channel\""
par Tictoc2.peer[93].gate$o[0].channel disabled false
attr mutable ""
par Tictoc2.peer[93].gate$o[0].channel delay 0.1s
attr mutable ""
attr unit s
par Tictoc2.switch[0].peer_gate$o[94].channel typename "\"Tictoc2.Channel\""
par Tictoc2.switch[0].peer_gate$o[94].channel disabled false
attr mutable ""
par Tictoc2.switch[0].peer_gate$o[94].channel delay 0.1s
attr mutable ""
attr unit s
par Tictoc2.peer[94].gate$o[0].channel typename "\"Tictoc2.Channel\""
par Tictoc2.peer[94].gate$o[0].channel disabled false
attr mutable ""
par Tictoc2.peer[94].gate$o[0].channel delay 0.1s
attr mutable ""
attr unit s
par Tictoc2.switch[0].peer_gate$o[95].channel typename "\"Tictoc2.Channel\""
par Tictoc2.switch[0].peer_gate$o[95].channel disabled false
attr mutable ""
par Tictoc2.switch[0].peer_gate$o[95].channel delay 0.1s
attr mutable ""
attr unit s
par Tictoc2.peer[95].gate$o[0].channel typename "\"Tictoc2.Channel\""
par Tictoc2.peer[95].gate$o[0].channel disabled false
attr mutable ""
par Tictoc2.peer[95].gate$o[0].channel delay 0.1s
attr mutable ""
attr unit s
par Tictoc2.switch[0].peer_gate$o[96].channel typename "\"Tictoc2.Channel\""
par Tictoc2.switch[0].peer_gate$o[96].channel disabled false
attr mutable ""
par Tictoc2.switch[0].peer_gate$o[96].channel delay 0.1s
attr mutable ""
attr unit s
par Tictoc2.peer[96].gate$o[0].channel typename "\"Tictoc2.Channel\""
par Tictoc2.peer[96].gate$o[0].channel disabled false
attr mutable ""
par Tictoc2.peer[96].gate$o[0].channel delay 0.1s
attr mutable ""
attr unit s
par Tictoc2.switch[0].peer_gate$o[97].channel typename "\"Tictoc2.Channel\""
par Tictoc2.switch[0].peer_gate$o[97].channel disabled false
attr mutable ""
par Tictoc2.switch[0].peer_gate$o[97].channel delay 0.1s
attr mutable ""
attr unit s
par Tictoc2.peer[97].gate$o[0].channel typename "\"Tictoc2.Channel\""
par Tictoc2.peer[97].gate$o[0].channel disabled false
attr mutable ""
par Tictoc2.peer[97].gate$o[0].channel delay 0.1s
attr mutable ""
attr unit s
par Tictoc2.switch[0].peer_gate$o[98].channel typename "\"Tictoc2.Channel\""
par Tictoc2.switch[0].peer_gate$o[98].channel disabled false
attr mutable ""
par Tictoc2.switch[0].peer_gate$o[98].channel delay 0.1s
attr mutable ""
attr unit s
par Tictoc2.peer[98].gate$o[0].channel typename "\"Tictoc2.Channel\""
par Tictoc2.peer[98].gate$o[0].channel disabled false
attr mutable ""
par Tictoc2.peer[98].gate$o[0].channel delay 0.1s
attr mutable ""
attr unit s
par Tictoc2.switch[0].peer_gate$o[99].channel typename "\"Tictoc2.Channel\""
par Tictoc2.switch[0].peer_gate$o[99].channel disabled false
attr mutable ""
par Tictoc2.switch[0].peer_gate$o[99].channel delay 0.1s
attr mutable ""
attr unit s
par Tictoc2.peer[99].gate$o[0].channel typename "\"Tictoc2.Channel\""
par Tictoc2.peer[99].gate$o[0].channel disabled false
attr mutable ""
par Tictoc2.peer[99].gate$o[0].channel delay 0.1s
attr mutable ""
attr unit s
par Tictoc2.switch[0].peer_gate$o[100].channel typename "\"Tictoc2.Channel\""
par Tictoc2.switch[0].peer_gate$o[100].channel disabled false
attr mutable ""
par Tictoc2.switch[0].peer_gate$o[100].channel delay 0.1s
attr mutable ""
attr unit s
par Tictoc2.peer[100].gate$o[0].channel typename "\"Tictoc2.Channel\""
par Tictoc2.peer[100].gate$o[0].channel disabled false
attr mutable ""
par Tictoc2.peer[100].gate$o[0].channel delay 0.1s
attr mutable ""
attr unit s
par Tictoc2.switch[0].peer_gate$o[101].channel typename "\"Tictoc2.Channel\""
par Tictoc2.switch[0].peer_gate$o[101].channel disabled false
attr mutable ""
par Tictoc2.switch[0].peer_gate$o[101].channel delay 0.1s
attr mutable ""
attr unit s
par Tictoc2.peer[101].gate$o[0].channel typename "\"Tictoc2.Channel\""
par Tictoc2.peer[101].gate$o[0].channel disabled false
attr mutable ""
par Tictoc2.peer[101].gate$o[0].channel delay 0.1s
attr mutable ""
attr unit s
par Tictoc2.switch[0].peer_gate$o[102].channel typename "\"Tictoc2.Channel\""
par Tictoc2.switch[0].peer_gate$o[102].channel disabled false
attr mutable ""
par Tictoc2.switch[0].peer_gate$o[102].channel delay 0.1s
attr mutable ""
attr unit s
par Tictoc2.peer[102].gate$o[0].channel typename "\"Tictoc2.Channel\""
par Tictoc2.peer[102].gate$o[0].channel disabled false
attr mutable ""
par Tictoc2.peer[102].gate$o[0].channel delay 0.1s
attr mutable ""
attr unit s
par Tictoc2.switch[0].peer_gate$o[103].channel typename "\"Tictoc2.Channel\""
par Tictoc2.switch[0].peer_gate$o[103].channel disabled false
attr mutable ""
par Tictoc2.switch[0].peer_gate$o[103].channel delay 0.1s
attr mutable ""
attr unit s
par Tictoc2.peer[103].gate$o[0].channel typename "\"Tictoc2.Channel\""
par Tictoc2.peer[103].gate$o[0].channel disabled false
attr mutable ""
par Tictoc2.peer[103].gate$o[0].channel delay 0.1s
attr mutable ""
attr unit s
par Tictoc2.switch[0].peer_gate$o[104].channel typename "\"Tictoc2.Channel\""
par Tictoc2.switch[0].peer_gate$o[104].channel disabled false
attr mutable ""
par Tictoc2.switch[0].peer_gate$o[104].channel delay 0.1s
attr mutable ""
attr unit s
par Tictoc2.peer[104].gate$o[0].channel typename "\"Tictoc2.Channel\""
par Tictoc2.peer[104].gate$o[0].channel disabled false
attr mutable ""
par Tictoc2.peer[104].gate$o[0].channel delay 0.1s
attr mutable ""
attr unit s
par Tictoc2.switch[0].peer_gate$o[105].channel typename "\"Tictoc2.Channel\""
par Tictoc2.switch[0].peer_gate$o[105].channel disabled false
attr mutable ""
par Tictoc2.switch[0].peer_gate$o[105].channel delay 0.1s
attr mutable ""
attr unit s
par Tictoc2.peer[105].gate$o[0].channel typename "\"Tictoc2.Channel\""
par Tictoc2.peer[105].gate$o[0].channel disabled false
attr mutable ""
par Tictoc2.peer[105].gate$o[0].channel delay 0.1s
attr mutable ""
attr unit s
par Tictoc2.switch[0].peer_gate$o[106].channel typename "\"Tictoc2.Channel\""
par Tictoc2.switch[0].peer_gate$o[106].channel disabled false
attr mutable ""
par Tictoc2.switch[0].peer_gate$o[106].channel delay 0.1s
attr mutable ""
attr unit s
par Tictoc2.peer[106].gate$o[0].channel typename "\"Tictoc2.Channel\""
par Tictoc2.peer[106].gate$o[0].channel disabled false
attr mutable ""
par Tictoc2.peer[106].gate$o[0].channel delay 0.1s
attr mutable ""
attr unit s
par Tictoc2.switch[0].peer_gate$o[107].channel typename "\"Tictoc2.Channel\""
par Tictoc2.switch[0].peer_gate$o[107].channel disabled false
attr mutable ""
par Tictoc2.switch[0].peer_gate$o[107].channel delay 0.1s
attr mutable ""
attr unit s
par Tictoc2.peer[107].gate$o[0].channel typename "\"Tictoc2.Channel\""
par Tictoc2.peer[107].gate$o[0].channel disabled false
attr mutable ""
par Tictoc2.peer[107].gate$o[0].channel delay 0.1s
attr mutable ""
attr unit s
par Tictoc2.switch[0].peer_gate$o[108].channel typename "\"Tictoc2.Channel\""
par Tictoc2.switch[0].peer_gate$o[108].channel disabled false
attr mutable ""
par Tictoc2.switch[0].peer_gate$o[108].channel delay 0.1s
attr mutable ""
attr unit s
par Tictoc2.peer[108].gate$o[0].channel typename "\"Tictoc2.Channel\""
par Tictoc2.peer[108].gate$o[0].channel disabled false
attr mutable ""
par Tictoc2.peer[108].gate$o[0].channel delay 0.1s
attr mutable ""
attr unit s
par Tictoc2.switch[0].peer_gate$o[109].channel typename "\"Tictoc2.Channel\""
par Tictoc2.switch[0].peer_gate$o[109].channel disabled false
attr mutable ""
par Tictoc2.switch[0].peer_gate$o[109].channel delay 0.1s
attr mutable ""
attr unit s
par Tictoc2.peer[109].gate$o[0].channel typename "\"Tictoc2.Channel\""
par Tictoc2.peer[109].gate$o[0].channel disabled false
attr mutable ""
par Tictoc2.peer[109].gate$o[0].channel delay 0.1s
attr mutable ""
attr unit s
par Tictoc2.switch[0].peer_gate$o[110].channel typename "\"Tictoc2.Channel\""
par Tictoc2.switch[0].peer_gate$o[110].channel disabled false
attr mutable ""
par Tictoc2.switch[0].peer_gate$o[110].channel delay 0.1s
attr mutable ""
attr unit s
par Tictoc2.peer[110].gate$o[0].channel typename "\"Tictoc2.Channel\""
par Tictoc2.peer[110].gate$o[0].channel disabled false
attr mutable ""
par Tictoc2.peer[110].gate$o[0].channel delay 0.1s
attr mutable ""
attr unit s
par Tictoc2.switch[0].peer_gate$o[111].channel typename "\"Tictoc2.Channel\""
par Tictoc2.switch[0].peer_gate$o[111].channel disabled false
attr mutable ""
par Tictoc2.switch[0].peer_gate$o[111].channel delay 0.1s
attr mutable ""
attr unit s
par Tictoc2.peer[111].gate$o[0].channel typename "\"Tictoc2.Channel\""
par Tictoc2.peer[111].gate$o[0].channel disabled false
attr mutable ""
par Tictoc2.peer[111].gate$o[0].channel delay 0.1s
attr mutable ""
attr unit s
par Tictoc2.switch[0].peer_gate$o[112].channel typename "\"Tictoc2.Channel\""
par Tictoc2.switch[0].peer_gate$o[112].channel disabled false
attr mutable ""
par Tictoc2.switch[0].peer_gate$o[112].channel delay 0.1s
attr mutable ""
attr unit s
par Tictoc2.peer[112].gate$o[0].channel typename "\"Tictoc2.Channel\""
par Tictoc2.peer[112].gate$o[0].channel disabled false
attr mutable ""
par Tictoc2.peer[112].gate$o[0].channel delay 0.1s
attr mutable ""
attr unit s
par Tictoc2.switch[0].peer_gate$o[113].channel typename "\"Tictoc2.Channel\""
par Tictoc2.switch[0].peer_gate$o[113].channel disabled false
attr mutable ""
par Tictoc2.switch[0].peer_gate$o[113].channel delay 0.1s
attr mutable ""
attr unit s
par Tictoc2.peer[113].gate$o[0].channel typename "\"Tictoc2.Channel\""
par Tictoc2.peer[113].gate$o[0].channel disabled false
attr mutable ""
par Tictoc2.peer[113].gate$o[0].channel delay 0.1s
attr mutable ""
attr unit s
par Tictoc2.switch[0].peer_gate$o[114].channel typename "\"Tictoc2.Channel\""
par Tictoc2.switch[0].peer_gate$o[114].channel disabled false
attr mutable ""
par Tictoc2.switch[0].peer_gate$o[114].channel delay 0.1s
attr mutable ""
attr unit s
par Tictoc2.peer[114].gate$o[0].channel typename "\"Tictoc2.Channel\""
par Tictoc2.peer[114].gate$o[0].channel disabled false
attr mutable ""
par Tictoc2.peer[114].gate$o[0].channel delay 0.1s
attr mutable ""
attr unit s
par Tictoc2.switch[0].peer_gate$o[115].channel typename "\"Tictoc2.Channel\""
par Tictoc2.switch[0].peer_gate$o[115].channel disabled false
attr mutable ""
par Tictoc2.switch[0].peer_gate$o[115].channel delay 0.1s
attr mutable ""
attr unit s
par Tictoc2.peer[115].gate$o[0].channel typename "\"Tictoc2.Channel\""
par Tictoc2.peer[115].gate$o[0].channel disabled false
attr mutable ""
par Tictoc2.peer[115].gate$o[0].channel delay 0.1s
attr mutable ""
attr unit s
par Tictoc2.switch[0].peer_gate$o[116].channel typename "\"Tictoc2.Channel\""
par Tictoc2.switch[0].peer_gate$o[116].channel disabled false
attr mutable ""
par Tictoc2.switch[0].peer_gate$o[116].channel delay 0.1s
attr mutable ""
attr unit s
par Tictoc2.peer[116].gate$o[0].channel typename "\"Tictoc2.Channel\""
par Tictoc2.peer[116].gate$o[0].channel disabled false
attr mutable ""
par Tictoc2.peer[116].gate$o[0].channel delay 0.1s
attr mutable ""
attr unit s
par Tictoc2.switch[0].peer_gate$o[117].channel typename "\"Tictoc2.Channel\""
par Tictoc2.switch[0].peer_gate$o[117].channel disabled false
attr mutable ""
par Tictoc2.switch[0].peer_gate$o[117].channel delay 0.1s
attr mutable ""
attr unit s
par Tictoc2.peer[117].gate$o[0].channel typename "\"Tictoc2.Channel\""
par Tictoc2.peer[117].gate$o[0].channel disabled false
attr mutable ""
par Tictoc2.peer[117].gate$o[0].channel delay 0.1s
attr mutable ""
attr unit s
par Tictoc2.switch[0].peer_gate$o[118].channel typename "\"Tictoc2.Channel\""
par Tictoc2.switch[0].peer_gate$o[118].channel disabled false
attr mutable ""
par Tictoc2.switch[0].peer_gate$o[118].channel delay 0.1s
attr mutable ""
attr unit s
par Tictoc2.peer[118].gate$o[0].channel typename "\"Tictoc2.Channel\""
par Tictoc2.peer[118].gate$o[0].channel disabled false
attr mutable ""
par Tictoc2.peer[118].gate$o[0].channel delay 0.1s
attr mutable ""
attr unit s
par Tictoc2.switch[0].peer_gate$o[119].channel typename "\"Tictoc2.Channel\""
par Tictoc2.switch[0].peer_gate$o[119].channel disabled false
attr mutable ""
par Tictoc2.switch[0].peer_gate$o[119].channel delay 0.1s
attr mutable ""
attr unit s
par Tictoc2.peer[119].gate$o[0].channel typename "\"Tictoc2.Channel\""
par Tictoc2.peer[119].gate$o[0].channel disabled false
attr mutable ""
par Tictoc2.peer[119].gate$o[0].channel delay 0.1s
attr mutable ""
attr unit s
par Tictoc2.switch[0].peer_gate$o[120].channel typename "\"Tictoc2.Channel\""
par Tictoc2.switch[0].peer_gate$o[120].channel disabled false
attr mutable ""
par Tictoc2.switch[0].peer_gate$o[120].channel delay 0.1s
attr mutable ""
attr unit s
par Tictoc2.peer[120].gate$o[0].channel typename "\"Tictoc2.Channel\""
par Tictoc2.peer[120].gate$o[0].channel disabled false
attr mutable ""
par Tictoc2.peer[120].gate$o[0].channel delay 0.1s
attr mutable ""
attr unit s
par Tictoc2.switch[0].peer_gate$o[121].channel typename "\"Tictoc2.Channel\""
par Tictoc2.switch[0].peer_gate$o[121].channel disabled false
attr mutable ""
par Tictoc2.switch[0].peer_gate$o[121].channel delay 0.1s
attr mutable ""
attr unit s
par Tictoc2.peer[121].gate$o[0].channel typename "\"Tictoc2.Channel\""
par Tictoc2.peer[121].gate$o[0].channel disabled false
attr mutable ""
par Tictoc2.peer[121].gate$o[0].channel delay 0.1s
attr mutable ""
attr unit s
par Tictoc2.switch[0].peer_gate$o[122].channel typename "\"Tictoc2.Channel\""
par Tictoc2.switch[0].peer_gate$o[122].channel disabled false
attr mutable ""
par Tictoc2.switch[0].peer_gate$o[122].channel delay 0.1s
attr mutable ""
attr unit s
par Tictoc2.peer[122].gate$o[0].channel typename "\"Tictoc2.Channel\""
par Tictoc2.peer[122].gate$o[0].channel disabled false
attr mutable ""
par Tictoc2.peer[122].gate$o[0].channel delay 0.1s
attr mutable ""
attr unit s
par Tictoc2.switch[0].peer_gate$o[123].channel typename "\"Tictoc2.Channel\""
par Tictoc2.switch[0].peer_gate$o[123].channel disabled false
attr mutable ""
par Tictoc2.switch[0].peer_gate$o[123].channel delay 0.1s
attr mutable ""
attr unit s
par Tictoc2.peer[123].gate$o[0].channel typename "\"Tictoc2.Channel\""
par Tictoc2.peer[123].gate$o[0].channel disabled false
attr mutable ""
par Tictoc2.peer[123].gate$o[0].channel delay 0.1s
attr mutable ""
attr unit s
par Tictoc2.switch[0].peer_gate$o[124].channel typename "\"Tictoc2.Channel\""
par Tictoc2.switch[0].peer_gate$o[124].channel disabled false
attr mutable ""
par Tictoc2.switch[0].peer_gate$o[124].channel delay 0.1s
attr mutable ""
attr unit s
par Tictoc2.peer[124].gate$o[0].channel typename "\"Tictoc2.Channel\""
par Tictoc2.peer[124].gate$o[0].channel disabled false
attr mutable ""
par Tictoc2.peer[124].gate$o[0].channel delay 0.1s
attr mutable ""
attr unit s
par Tictoc2.switch[0].peer_gate$o[125].channel typename "\"Tictoc2.Channel\""
par Tictoc2.switch[0].peer_gate$o[125].channel disabled false
attr mutable ""
par Tictoc2.switch[0].peer_gate$o[125].channel delay 0.1s
attr mutable ""
attr unit s
par Tictoc2.peer[125].gate$o[0].channel typename "\"Tictoc2.Channel\""
par Tictoc2.peer[125].gate$o[0].channel disabled false
attr mutable ""
par Tictoc2.peer[125].gate$o[0].channel delay 0.1s
attr mutable ""
attr unit s
par Tictoc2.switch[0].peer_gate$o[126].channel typename "\"Tictoc2.Channel\""
par Tictoc2.switch[0].peer_gate$o[126].channel disabled false
attr mutable ""
par Tictoc2.switch[0].peer_gate$o[126].channel delay 0.1s
attr mutable ""
attr unit s
par Tictoc2.peer[126].gate$o[0].channel typename "\"Tictoc2.Channel\""
par Tictoc2.peer[126].gate$o[0].channel disabled false
attr mutable ""
par Tictoc2.peer[126].gate$o[0].channel delay 0.1s
attr mutable ""
attr unit s
par Tictoc2.switch[0].peer_gate$o[127].channel typename "\"Tictoc2.Channel\""
par Tictoc2.switch[0].peer_gate$o[127].channel disabled false
attr mutable ""
par Tictoc2.switch[0].peer_gate$o[127].channel delay 0.1s
attr mutable ""
attr unit s
par Tictoc2.peer[127].gate$o[0].channel typename "\"Tictoc2.Channel\""
par Tictoc2.peer[127].gate$o[0].channel disabled false
attr mutable ""
par Tictoc2.peer[127].gate$o[0].channel delay 0.1s
attr mutable ""
attr unit s
par Tictoc2.switch[0].peer_gate$o[128].channel typename "\"Tictoc2.Channel\""
par Tictoc2.switch[0].peer_gate$o[128].channel disabled false
attr mutable ""
par Tictoc2.switch[0].peer_gate$o[128].channel delay 0.1s
attr mutable ""
attr unit s
par Tictoc2.peer[128].gate$o[0].channel typename "\"Tictoc2.Channel\""
par Tictoc2.peer[128].gate$o[0].channel disabled false
attr mutable ""
par Tictoc2.peer[128].gate$o[0].channel delay 0.1s
attr mutable ""
attr unit s
par Tictoc2.switch[0].peer_gate$o[129].channel typename "\"Tictoc2.Channel\""
par Tictoc2.switch[0].peer_gate$o[129].channel disabled false
attr mutable ""
par Tictoc2.switch[0].peer_gate$o[129].channel delay 0.1s
attr mutable ""
attr unit s
par Tictoc2.peer[129].gate$o[0].channel typename "\"Tictoc2.Channel\""
par Tictoc2.peer[129].gate$o[0].channel disabled false
attr mutable ""
par Tictoc2.peer[129].gate$o[0].channel delay 0.1s
attr mutable ""
attr unit s
par Tictoc2.switch[0].peer_gate$o[130].channel typename "\"Tictoc2.Channel\""
par Tictoc2.switch[0].peer_gate$o[130].channel disabled false
attr mutable ""
par Tictoc2.switch[0].peer_gate$o[130].channel delay 0.1s
attr mutable ""
attr unit s
par Tictoc2.peer[130].gate$o[0].channel typename "\"Tictoc2.Channel\""
par Tictoc2.peer[130].gate$o[0].channel disabled false
attr mutable ""
par Tictoc2.peer[130].gate$o[0].channel delay 0.1s
attr mutable ""
attr unit s
par Tictoc2.switch[0].peer_gate$o[131].channel typename "\"Tictoc2.Channel\""
par Tictoc2.switch[0].peer_gate$o[131].channel disabled false
attr mutable ""
par Tictoc2.switch[0].peer_gate$o[131].channel delay 0.1s
attr mutable ""
attr unit s
par Tictoc2.peer[131].gate$o[0].channel typename "\"Tictoc2.Channel\""
par Tictoc2.peer[131].gate$o[0].channel disabled false
attr mutable ""
par Tictoc2.peer[131].gate$o[0].channel delay 0.1s
attr mutable ""
attr unit s
par Tictoc2.switch[0].peer_gate$o[132].channel typename "\"Tictoc2.Channel\""
par Tictoc2.switch[0].peer_gate$o[132].channel disabled false
attr mutable ""
par Tictoc2.switch[0].peer_gate$o[132].channel delay 0.1s
attr mutable ""
attr unit s
par Tictoc2.peer[132].gate$o[0].channel typename "\"Tictoc2.Channel\""
par Tictoc2.peer[132].gate$o[0].channel disabled false
attr mutable ""
par Tictoc2.peer[132].gate$o[0].channel delay 0.1s
attr mutable ""
attr unit s
par Tictoc2.switch[0].peer_gate$o[133].channel typename "\"Tictoc2.Channel\""
par Tictoc2.switch[0].peer_gate$o[133].channel disabled false
attr mutable ""
par Tictoc2.switch[0].peer_gate$o[133].channel delay 0.1s
attr mutable ""
attr unit s
par Tictoc2.peer[133].gate$o[0].channel typename "\"Tictoc2.Channel\""
par Tictoc2.peer[133].gate$o[0].channel disabled false
attr mutable ""
par Tictoc2.peer[133].gate$o[0].channel delay 0.1s
attr mutable ""
attr unit s
par Tictoc2.switch[0].peer_gate$o[134].channel typename "\"Tictoc2.Channel\""
par Tictoc2.switch[0].peer_gate$o[134].channel disabled false
attr mutable ""
par Tictoc2.switch[0].peer_gate$o[134].channel delay 0.1s
attr mutable ""
attr unit s
par Tictoc2.peer[134].gate$o[0].channel typename "\"Tictoc2.Channel\""
par Tictoc2.peer[134].gate$o[0].channel disabled false
attr mutable ""
par Tictoc2.peer[134].gate$o[0].channel delay 0.1s
attr mutable ""
attr unit s
par Tictoc2.switch[0].peer_gate$o[135].channel typename "\"Tictoc2.Channel\""
par Tictoc2.switch[0].peer_gate$o[135].channel disabled false
attr mutable ""
par Tictoc2.switch[0].peer_gate$o[135].channel delay 0.1s
attr mutable ""
attr unit s
par Tictoc2.peer[135].gate$o[0].channel typename "\"Tictoc2.Channel\""
par Tictoc2.peer[135].gate$o[0].channel disabled false
attr mutable ""
par Tictoc2.peer[135].gate$o[0].channel delay 0.1s
attr mutable ""
attr unit s
par Tictoc2.switch[0].peer_gate$o[136].channel typename "\"Tictoc2.Channel\""
par Tictoc2.switch[0].peer_gate$o[136].channel disabled false
attr mutable ""
par Tictoc2.switch[0].peer_gate$o[136].channel delay 0.1s
attr mutable ""
attr unit s
par Tictoc2.peer[136].gate$o[0].channel typename "\"Tictoc2.Channel\""
par Tictoc2.peer[136].gate$o[0].channel disabled false
attr mutable ""
par Tictoc2.peer[136].gate$o[0].channel delay 0.1s
attr mutable ""
attr unit s
par Tictoc2.switch[0].peer_gate$o[137].channel typename "\"Tictoc2.Channel\""
par Tictoc2.switch[0].peer_gate$o[137].channel disabled false
attr mutable ""
par Tictoc2.switch[0].peer_gate$o[137].channel delay 0.1s
attr mutable ""
attr unit s
par Tictoc2.peer[137].gate$o[0].channel typename "\"Tictoc2.Channel\""
par Tictoc2.peer[137].gate$o[0].channel disabled false
attr mutable ""
par Tictoc2.peer[137].gate$o[0].channel delay 0.1s
attr mutable ""
attr unit s
par Tictoc2.switch[0].peer_gate$o[138].channel typename "\"Tictoc2.Channel\""
par Tictoc2.switch[0].peer_gate$o[138].channel disabled false
attr mutable ""
par Tictoc2.switch[0].peer_gate$o[138].channel delay 0.1s
attr mutable ""
attr unit s
par Tictoc2.peer[138].gate$o[0].channel typename "\"Tictoc2.Channel\""
par Tictoc2.peer[138].gate$o[0].channel disabled false
attr mutable ""
par Tictoc2.peer[138].gate$o[0].channel delay 0.1s
attr mutable ""
attr unit s
par Tictoc2.switch[0].peer_gate$o[139].channel typename "\"Tictoc2.Channel\""
par Tictoc2.switch[0].peer_gate$o[139].channel disabled false
attr mutable ""
par Tictoc2.switch[0].peer_gate$o[139].channel delay 0.1s
attr mutable ""
attr unit s
par Tictoc2.peer[139].gate$o[0].channel typename "\"Tictoc2.Channel\""
par Tictoc2.peer[139].gate$o[0].channel disabled false
attr mutable ""
par Tictoc2.peer[139].gate$o[0].channel delay 0.1s
attr mutable ""
attr unit s
par Tictoc2.switch[0].peer_gate$o[140].channel typename "\"Tictoc2.Channel\""
par Tictoc2.switch[0].peer_gate$o[140].channel disabled false
attr mutable ""
par Tictoc2.switch[0].peer_gate$o[140].channel delay 0.1s
attr mutable ""
attr unit s
par Tictoc2.peer[140].gate$o[0].channel typename "\"Tictoc2.Channel\""
par Tictoc2.peer[140].gate$o[0].channel disabled false
attr mutable ""
par Tictoc2.peer[140].gate$o[0].channel delay 0.1s
attr mutable ""
attr unit s
par Tictoc2.switch[0].peer_gate$o[141].channel typename "\"Tictoc2.Channel\""
par Tictoc2.switch[0].peer_gate$o[141].channel disabled false
attr mutable ""
par Tictoc2.switch[0].peer_gate$o[141].channel delay 0.1s
attr mutable ""
attr unit s
par Tictoc2.peer[141].gate$o[0].channel typename "\"Tictoc2.Channel\""
par Tictoc2.peer[141].gate$o[0].channel disabled false
attr mutable ""
par Tictoc2.peer[141].gate$o[0].channel delay 0.1s
attr mutable ""
attr unit s
par Tictoc2.switch[0].peer_gate$o[142].channel typename "\"Tictoc2.Channel\""
par Tictoc2.switch[0].peer_gate$o[142].channel disabled false
attr mutable ""
par Tictoc2.switch[0].peer_gate$o[142].channel delay 0.1s
attr mutable ""
attr unit s
par Tictoc2.peer[142].gate$o[0].channel typename "\"Tictoc2.Channel\""
par Tictoc2.peer[142].gate$o[0].channel disabled false
attr mutable ""
par Tictoc2.peer[142].gate$o[0].channel delay 0.1s
attr mutable ""
attr unit s
par Tictoc2.switch[0].peer_gate$o[143].channel typename "\"Tictoc2.Channel\""
par Tictoc2.switch[0].peer_gate$o[143].channel disabled false
attr mutable ""
par Tictoc2.switch[0].peer_gate$o[143].channel delay 0.1s
attr mutable ""
attr unit s
par Tictoc2.peer[143].gate$o[0].channel typename "\"Tictoc2.Channel\""
par Tictoc2.peer[143].gate$o[0].channel disabled false
attr mutable ""
par Tictoc2.peer[143].gate$o[0].channel delay 0.1s
attr mutable ""
attr unit s
par Tictoc2.switch[0].peer_gate$o[144].channel typename "\"Tictoc2.Channel\""
par Tictoc2.switch[0].peer_gate$o[144].channel disabled false
attr mutable ""
par Tictoc2.switch[0].peer_gate$o[144].channel delay 0.1s
attr mutable ""
attr unit s
par Tictoc2.peer[144].gate$o[0].channel typename "\"Tictoc2.Channel\""
par Tictoc2.peer[144].gate$o[0].channel disabled false
attr mutable ""
par Tictoc2.peer[144].gate$o[0].channel delay 0.1s
attr mutable ""
attr unit s
par Tictoc2.switch[0].peer_gate$o[145].channel typename "\"Tictoc2.Channel\""
par Tictoc2.switch[0].peer_gate$o[145].channel disabled false
attr mutable ""
par Tictoc2.switch[0].peer_gate$o[145].channel delay 0.1s
attr mutable ""
attr unit s
par Tictoc2.peer[145].gate$o[0].channel typename "\"Tictoc2.Channel\""
par Tictoc2.peer[145].gate$o[0].channel disabled false
attr mutable ""
par Tictoc2.peer[145].gate$o[0].channel delay 0.1s
attr mutable ""
attr unit s
par Tictoc2.switch[0].peer_gate$o[146].channel typename "\"Tictoc2.Channel\""
par Tictoc2.switch[0].peer_gate$o[146].channel disabled false
attr mutable ""
par Tictoc2.switch[0].peer_gate$o[146].channel delay 0.1s
attr mutable ""
attr unit s
par Tictoc2.peer[146].gate$o[0].channel typename "\"Tictoc2.Channel\""
par Tictoc2.peer[146].gate$o[0].channel disabled false
attr mutable ""
par Tictoc2.peer[146].gate$o[0].channel delay 0.1s
attr mutable ""
attr unit s
par Tictoc2.switch[0].peer_gate$o[147].channel typename "\"Tictoc2.Channel\""
par Tictoc2.switch[0].peer_gate$o[147].channel disabled false
attr mutable ""
par Tictoc2.switch[0].peer_gate$o[147].channel delay 0.1s
attr mutable ""
attr unit s
par Tictoc2.peer[147].gate$o[0].channel typename "\"Tictoc2.Channel\""
par Tictoc2.peer[147].gate$o[0].channel disabled false
attr mutable ""
par Tictoc2.peer[147].gate$o[0].channel delay 0.1s
attr mutable ""
attr unit s
par Tictoc2.switch[0].peer_gate$o[148].channel typename "\"Tictoc2.Channel\""
par Tictoc2.switch[0].peer_gate$o[148].channel disabled false
attr mutable ""
par Tictoc2.switch[0].peer_gate$o[148].channel delay 0.1s
attr mutable ""
attr unit s
par Tictoc2.peer[148].gate$o[0].channel typename "\"Tictoc2.Channel\""
par Tictoc2.peer[148].gate$o[0].channel disabled false
attr mutable ""
par Tictoc2.peer[148].gate$o[0].channel delay 0.1s
attr mutable ""
attr unit s
par Tictoc2.switch[0].peer_gate$o[149].channel typename "\"Tictoc2.Channel\""
par Tictoc2.switch[0].peer_gate$o[149].channel disabled false
attr mutable ""
par Tictoc2.switch[0].peer_gate$o[149].channel delay 0.1s
attr mutable ""
attr unit s
par Tictoc2.peer[149].gate$o[0].channel typename "\"Tictoc2.Channel\""
par Tictoc2.peer[149].gate$o[0].channel disabled false
attr mutable ""
par Tictoc2.peer[149].gate$o[0].channel delay 0.1s
attr mutable ""
attr unit s
par Tictoc2.switch[0].peer_gate$o[150].channel typename "\"Tictoc2.Channel\""
par Tictoc2.switch[0].peer_gate$o[150].channel disabled false
attr mutable ""
par Tictoc2.switch[0].peer_gate$o[150].channel delay 0.1s
attr mutable ""
attr unit s
par Tictoc2.peer[150].gate$o[0].channel typename "\"Tictoc2.Channel\""
par Tictoc2.peer[150].gate$o[0].channel disabled false
attr mutable ""
par Tictoc2.peer[150].gate$o[0].channel delay 0.1s
attr mutable ""
attr unit s
par Tictoc2.switch[0].peer_gate$o[151].channel typename "\"Tictoc2.Channel\""
par Tictoc2.switch[0].peer_gate$o[151].channel disabled false
attr mutable ""
par Tictoc2.switch[0].peer_gate$o[151].channel delay 0.1s
attr mutable ""
attr unit s
par Tictoc2.peer[151].gate$o[0].channel typename "\"Tictoc2.Channel\""
par Tictoc2.peer[151].gate$o[0].channel disabled false
attr mutable ""
par Tictoc2.peer[151].gate$o[0].channel delay 0.1s
attr mutable ""
attr unit s
par Tictoc2.switch[0].peer_gate$o[152].channel typename "\"Tictoc2.Channel\""
par Tictoc2.switch[0].peer_gate$o[152].channel disabled false
attr mutable ""
par Tictoc2.switch[0].peer_gate$o[152].channel delay 0.1s
attr mutable ""
attr unit s
par Tictoc2.peer[152].gate$o[0].channel typename "\"Tictoc2.Channel\""
par Tictoc2.peer[152].gate$o[0].channel disabled false
attr mutable ""
par Tictoc2.peer[152].gate$o[0].channel delay 0.1s
attr mutable ""
attr unit s
par Tictoc2.switch[0].peer_gate$o[153].channel typename "\"Tictoc2.Channel\""
par Tictoc2.switch[0].peer_gate$o[153].channel disabled false
attr mutable ""
par Tictoc2.switch[0].peer_gate$o[153].channel delay 0.1s
attr mutable ""
attr unit s
par Tictoc2.peer[153].gate$o[0].channel typename "\"Tictoc2.Channel\""
par Tictoc2.peer[153].gate$o[0].channel disabled false
attr mutable ""
par Tictoc2.peer[153].gate$o[0].channel delay 0.1s
attr mutable ""
attr unit s
par Tictoc2.switch[0].peer_gate$o[154].channel typename "\"Tictoc2.Channel\""
par Tictoc2.switch[0].peer_gate$o[154].channel disabled false
attr mutable ""
par Tictoc2.switch[0].peer_gate$o[154].channel delay 0.1s
attr mutable ""
attr unit s
par Tictoc2.peer[154].gate$o[0].channel typename "\"Tictoc2.Channel\""
par Tictoc2.peer[154].gate$o[0].channel disabled false
attr mutable ""
par Tictoc2.peer[154].gate$o[0].channel delay 0.1s
attr mutable ""
attr unit s
par Tictoc2.switch[0].peer_gate$o[155].channel typename "\"Tictoc2.Channel\""
par Tictoc2.switch[0].peer_gate$o[155].channel disabled false
attr mutable ""
par Tictoc2.switch[0].peer_gate$o[155].channel delay 0.1s
attr mutable ""
attr unit s
par Tictoc2.peer[155].gate$o[0].channel typename "\"Tictoc2.Channel\""
par Tictoc2.peer[155].gate$o[0].channel disabled false
attr mutable ""
par Tictoc2.peer[155].gate$o[0].channel delay 0.1s
attr mutable ""
attr unit s
par Tictoc2.switch[0].peer_gate$o[156].channel typename "\"Tictoc2.Channel\""
par Tictoc2.switch[0].peer_gate$o[156].channel disabled false
attr mutable ""
par Tictoc2.switch[0].peer_gate$o[156].channel delay 0.1s
attr mutable ""
attr unit s
par Tictoc2.peer[156].gate$o[0].channel typename "\"Tictoc2.Channel\""
par Tictoc2.peer[156].gate$o[0].channel disabled false
attr mutable ""
par Tictoc2.peer[156].gate$o[0].channel delay 0.1s
attr mutable ""
attr unit s
par Tictoc2.switch[0].peer_gate$o[157].channel typename "\"Tictoc2.Channel\""
par Tictoc2.switch[0].peer_gate$o[157].channel disabled false
attr mutable ""
par Tictoc2.switch[0].peer_gate$o[157].channel delay 0.1s
attr mutable ""
attr unit s
par Tictoc2.peer[157].gate$o[0].channel typename "\"Tictoc2.Channel\""
par Tictoc2.peer[157].gate$o[0].channel disabled false
attr mutable ""
par Tictoc2.peer[157].gate$o[0].channel delay 0.1s
attr mutable ""
attr unit s
par Tictoc2.switch[0].peer_gate$o[158].channel typename "\"Tictoc2.Channel\""
par Tictoc2.switch[0].peer_gate$o[158].channel disabled false
attr mutable ""
par Tictoc2.switch[0].peer_gate$o[158].channel delay 0.1s
attr mutable ""
attr unit s
par Tictoc2.peer[158].gate$o[0].channel typename "\"Tictoc2.Channel\""
par Tictoc2.peer[158].gate$o[0].channel disabled false
attr mutable ""
par Tictoc2.peer[158].gate$o[0].channel delay 0.1s
attr mutable ""
attr unit s
par Tictoc2.switch[0].peer_gate$o[159].channel typename "\"Tictoc2.Channel\""
par Tictoc2.switch[0].peer_gate$o[159].channel disabled false
attr mutable ""
par Tictoc2.switch[0].peer_gate$o[159].channel delay 0.1s
attr mutable ""
attr unit s
par Tictoc2.peer[159].gate$o[0].channel typename "\"Tictoc2.Channel\""
par Tictoc2.peer[159].gate$o[0].channel disabled false
attr mutable ""
par Tictoc2.peer[159].gate$o[0].channel delay 0.1s
attr mutable ""
attr unit s
par Tictoc2.switch[0].peer_gate$o[160].channel typename "\"Tictoc2.Channel\""
par Tictoc2.switch[0].peer_gate$o[160].channel disabled false
attr mutable ""
par Tictoc2.switch[0].peer_gate$o[160].channel delay 0.1s
attr mutable ""
attr unit s
par Tictoc2.peer[160].gate$o[0].channel typename "\"Tictoc2.Channel\""
par Tictoc2.peer[160].gate$o[0].channel disabled false
attr mutable ""
par Tictoc2.peer[160].gate$o[0].channel delay 0.1s
attr mutable ""
attr unit s
par Tictoc2.switch[0].peer_gate$o[161].channel typename "\"Tictoc2.Channel\""
par Tictoc2.switch[0].peer_gate$o[161].channel disabled false
attr mutable ""
par Tictoc2.switch[0].peer_gate$o[161].channel delay 0.1s
attr mutable ""
attr unit s
par Tictoc2.peer[161].gate$o[0].channel typename "\"Tictoc2.Channel\""
par Tictoc2.peer[161].gate$o[0].channel disabled false
attr mutable ""
par Tictoc2.peer[161].gate$o[0].channel delay 0.1s
attr mutable ""
attr unit s
par Tictoc2.switch[0].peer_gate$o[162].channel typename "\"Tictoc2.Channel\""
par Tictoc2.switch[0].peer_gate$o[162].channel disabled false
attr mutable ""
par Tictoc2.switch[0].peer_gate$o[162].channel delay 0.1s
attr mutable ""
attr unit s
par Tictoc2.peer[162].gate$o[0].channel typename "\"Tictoc2.Channel\""
par Tictoc2.peer[162].gate$o[0].channel disabled false
attr mutable ""
par Tictoc2.peer[162].gate$o[0].channel delay 0.1s
attr mutable ""
attr unit s
par Tictoc2.switch[0].peer_gate$o[163].channel typename "\"Tictoc2.Channel\""
par Tictoc2.switch[0].peer_gate$o[163].channel disabled false
attr mutable ""
par Tictoc2.switch[0].peer_gate$o[163].channel delay 0.1s
attr mutable ""
attr unit s
par Tictoc2.peer[163].gate$o[0].channel typename "\"Tictoc2.Channel\""
par Tictoc2.peer[163].gate$o[0].channel disabled false
attr mutable ""
par Tictoc2.peer[163].gate$o[0].channel delay 0.1s
attr mutable ""
attr unit s
par Tictoc2.switch[0].peer_gate$o[164].channel typename "\"Tictoc2.Channel\""
par Tictoc2.switch[0].peer_gate$o[164].channel disabled false
attr mutable ""
par Tictoc2.switch[0].peer_gate$o[164].channel delay 0.1s
attr mutable ""
attr unit s
par Tictoc2.peer[164].gate$o[0].channel typename "\"Tictoc2.Channel\""
par Tictoc2.peer[164].gate$o[0].channel disabled false
attr mutable ""
par Tictoc2.peer[164].gate$o[0].channel delay 0.1s
attr mutable ""
attr unit s
par Tictoc2.switch[0].peer_gate$o[165].channel typename "\"Tictoc2.Channel\""
par Tictoc2.switch[0].peer_gate$o[165].channel disabled false
attr mutable ""
par Tictoc2.switch[0].peer_gate$o[165].channel delay 0.1s
attr mutable ""
attr unit s
par Tictoc2.peer[165].gate$o[0].channel typename "\"Tictoc2.Channel\""
par Tictoc2.peer[165].gate$o[0].channel disabled false
attr mutable ""
par Tictoc2.peer[165].gate$o[0].channel delay 0.1s
attr mutable ""
attr unit s
par Tictoc2.switch[0].peer_gate$o[166].channel typename "\"Tictoc2.Channel\""
par Tictoc2.switch[0].peer_gate$o[166].channel disabled false
attr mutable ""
par Tictoc2.switch[0].peer_gate$o[166].channel delay 0.1s
attr mutable ""
attr unit s
par Tictoc2.peer[166].gate$o[0].channel typename "\"Tictoc2.Channel\""
par Tictoc2.peer[166].gate$o[0].channel disabled false
attr mutable ""
par Tictoc2.peer[166].gate$o[0].channel delay 0.1s
attr mutable ""
attr unit s
par Tictoc2.switch[0].peer_gate$o[167].channel typename "\"Tictoc2.Channel\""
par Tictoc2.switch[0].peer_gate$o[167].channel disabled false
attr mutable ""
par Tictoc2.switch[0].peer_gate$o[167].channel delay 0.1s
attr mutable ""
attr unit s
par Tictoc2.peer[167].gate$o[0].channel typename "\"Tictoc2.Channel\""
par Tictoc2.peer[167].gate$o[0].channel disabled false
attr mutable ""
par Tictoc2.peer[167].gate$o[0].channel delay 0.1s
attr mutable ""
attr unit s
par Tictoc2.switch[0].peer_gate$o[168].channel typename "\"Tictoc2.Channel\""
par Tictoc2.switch[0].peer_gate$o[168].channel disabled false
attr mutable ""
par Tictoc2.switch[0].peer_gate$o[168].channel delay 0.1s
attr mutable ""
attr unit s
par Tictoc2.peer[168].gate$o[0].channel typename "\"Tictoc2.Channel\""
par Tictoc2.peer[168].gate$o[0].channel disabled false
attr mutable ""
par Tictoc2.peer[168].gate$o[0].channel delay 0.1s
attr mutable ""
attr unit s
par Tictoc2.switch[0].peer_gate$o[169].channel typename "\"Tictoc2.Channel\""
par Tictoc2.switch[0].peer_gate$o[169].channel disabled false
attr mutable ""
par Tictoc2.switch[0].peer_gate$o[169].channel delay 0.1s
attr mutable ""
attr unit s
par Tictoc2.peer[169].gate$o[0].channel typename "\"Tictoc2.Channel\""
par Tictoc2.peer[169].gate$o[0].channel disabled false
attr mutable ""
par Tictoc2.peer[169].gate$o[0].channel delay 0.1s
attr mutable ""
attr unit s
par Tictoc2.switch[0].peer_gate$o[170].channel typename "\"Tictoc2.Channel\""
par Tictoc2.switch[0].peer_gate$o[170].channel disabled false
attr mutable ""
par Tictoc2.switch[0].peer_gate$o[170].channel delay 0.1s
attr mutable ""
attr unit s
par Tictoc2.peer[170].gate$o[0].channel typename "\"Tictoc2.Channel\""
par Tictoc2.peer[170].gate$o[0].channel disabled false
attr mutable ""
par Tictoc2.peer[170].gate$o[0].channel delay 0.1s
attr mutable ""
attr unit s
par Tictoc2.switch[0].peer_gate$o[171].channel typename "\"Tictoc2.Channel\""
par Tictoc2.switch[0].peer_gate$o[171].channel disabled false
attr mutable ""
par Tictoc2.switch[0].peer_gate$o[171].channel delay 0.1s
attr mutable ""
attr unit s
par Tictoc2.peer[171].gate$o[0].channel typename "\"Tictoc2.Channel\""
par Tictoc2.peer[171].gate$o[0].channel disabled false
attr mutable ""
par Tictoc2.peer[171].gate$o[0].channel delay 0.1s
attr mutable ""
attr unit s
par Tictoc2.switch[0].peer_gate$o[172].channel typename "\"Tictoc2.Channel\""
par Tictoc2.switch[0].peer_gate$o[172].channel disabled false
attr mutable ""
par Tictoc2.switch[0].peer_gate$o[172].channel delay 0.1s
attr mutable ""
attr unit s
par Tictoc2.peer[172].gate$o[0].channel typename "\"Tictoc2.Channel\""
par Tictoc2.peer[172].gate$o[0].channel disabled false
attr mutable ""
par Tictoc2.peer[172].gate$o[0].channel delay 0.1s
attr mutable ""
attr unit s
par Tictoc2.switch[0].peer_gate$o[173].channel typename "\"Tictoc2.Channel\""
[...]
par Tictoc2.peer[23] typename "\"Peer\""
par Tictoc2.peer[24] typename "\"Peer\""
par Tictoc2.peer[25] typename "\"Peer\""
par Tictoc2.peer[26] typename "\"Peer\""
par Tictoc2.peer[27] typename "\"Peer\""
par Tictoc2.peer[28] typename "\"Peer\""
par Tictoc2.peer[29] typename "\"Peer\""
par Tictoc2.peer[30] typename "\"Peer\""
par Tictoc2.peer[31] typename "\"Peer\""
par Tictoc2.peer[32] typename "\"Peer\""
par Tictoc2.peer[33] typename "\"Peer\""
par Tictoc2.peer[34] typename "\"Peer\""
par Tictoc2.peer[35] typename "\"Peer\""
par Tictoc2.peer[36] typename "\"Peer\""
par Tictoc2.peer[37] typename "\"Peer\""
par Tictoc2.peer[38] typename "\"Peer\""
par Tictoc2.peer[39] typename "\"Peer\""
par Tictoc2.peer[40] typename "\"Peer\""
par Tictoc2.peer[41] typename "\"Peer\""
par Tictoc2.peer[42] typename "\"Peer\""
par Tictoc2.peer[43] typename "\"Peer\""
par Tictoc2.peer[44] typename "\"Peer\""
par Tictoc2.peer[45] typename "\"Peer\""
par Tictoc2.peer[46] typename "\"Peer\""
par Tictoc2.peer[47] typename "\"Peer\""
par Tictoc2.peer[48] typename "\"Peer\""
par Tictoc2.peer[49] typename "\"Peer\""
par Tictoc2.peer[50] typename "\"Peer\""
par Tictoc2.peer[51] typename "\"Peer\""
par Tictoc2.peer[52] typename "\"Peer\""
par Tictoc2.peer[53] typename "\"Peer\""
par Tictoc2.peer[54] typename "\"Peer\""
par Tictoc2.peer[55] typename "\"Peer\""
par Tictoc2.peer[56] typename "\"Peer\""
par Tictoc2.peer[57] typename "\"Peer\""
par Tictoc2.peer[58] typename "\"Peer\""
par Tictoc2.peer[59] typename "\"Peer\""
par Tictoc2.peer[60] typename "\"Peer\""
par Tictoc2.peer[61] typename "\"Peer\""
par Tictoc2.peer[62] typename "\"Peer\""
par Tictoc2.peer[63] typename "\"Peer\""
par Tictoc2.peer[64] typename "\"Peer\""
par Tictoc2.peer[65] typename "\"Peer\""
par Tictoc2.peer[66] typename "\"Peer\""
par Tictoc2.peer[67] typename "\"Peer\""
par Tictoc2.peer[68] typename "\"Peer\""
par Tictoc2.peer[69] typename "\"Peer\""
par Tictoc2.peer[70] typename "\"Peer\""
par Tictoc2.peer[71] typename "\"Peer\""
par Tictoc2.peer[72] typename "\"Peer\""
par Tictoc2.peer[73] typename "\"Peer\""
par Tictoc2.peer[74] typename "\"Peer\""
par Tictoc2.peer[75] typename "\"Peer\""
par Tictoc2.peer[76] typename "\"Peer\""
par Tictoc2.peer[77] typename "\"Peer\""
par Tictoc2.peer[78] typename "\"Peer\""
par Tictoc2.peer[79] typename "\"Peer\""
par Tictoc2.peer[80] typename "\"Peer\""
par Tictoc2.peer[81] typename "\"Peer\""
par Tictoc2.peer[82] typename "\"Peer\""
par Tictoc2.peer[83] typename "\"Peer\""
par Tictoc2.peer[84] typename "\"Peer\""
par Tictoc2.peer[85] typename "\"Peer\""
par Tictoc2.peer[86] typename "\"Peer\""
par Tictoc2.peer[87] typename "\"Peer\""
par Tictoc2.peer[88] typename "\"Peer\""
par Tictoc2.peer[89] typename "\"Peer\""
par Tictoc2.peer[90] typename "\"Peer\""
par Tictoc2.peer[91] typename "\"Peer\""
par Tictoc2.peer[92] typename "\"Peer\""
par Tictoc2.peer[93] typename "\"Peer\""
par Tictoc2.peer[94] typename "\"Peer\""
par Tictoc2.peer[95] typename "\"Peer\""
par Tictoc2.peer[96] typename "\"Peer\""
par Tictoc2.peer[97] typename "\"Peer\""
par Tictoc2.peer[98] typename "\"Peer\""
par Tictoc2.peer[99] typename "\"Peer\""
par Tictoc2.peer[100] typename "\"Peer\""
par Tictoc2.peer[101] typename "\"Peer\""
par Tictoc2.peer[102] typename "\"Peer\""
par Tictoc2.peer[103] typename "\"Peer\""
par Tictoc2.peer[104] typename "\"Peer\""
par Tictoc2.peer[105] typename "\"Peer\""
par Tictoc2.peer[106] typename "\"Peer\""
par Tictoc2.peer[107] typename "\"Peer\""
par Tictoc2.peer[108] typename "\"Peer\""
par Tictoc2.peer[109] typename "\"Peer\""
par Tictoc2.peer[110] typename "\"Peer\""
par Tictoc2.peer[111] typename "\"Peer\""
par Tictoc2.peer[112] typename "\"Peer\""
par Tictoc2.peer[113] typename "\"Peer\""
par Tictoc2.peer[114] typename "\"Peer\""
par Tictoc2.peer[115] typename "\"Peer\""
par Tictoc2.peer[116] typename "\"Peer\""
par Tictoc2.peer[117] typename "\"Peer\""
par Tictoc2.peer[118] typename "\"Peer\""
par Tictoc2.peer[119] typename "\"Peer\""
par Tictoc2.peer[120] typename "\"Peer\""
par Tictoc2.peer[121] typename "\"Peer\""
par Tictoc2.peer[122] typename "\"Peer\""
par Tictoc2.peer[123] typename "\"Peer\""
par Tictoc2.peer[124] typename "\"Peer\""
par Tictoc2.peer[125] typename "\"Peer\""
par Tictoc2.peer[126] typename "\"Peer\""
par Tictoc2.peer[127] typename "\"Peer\""
par Tictoc2.peer[128] typename "\"Peer\""
par Tictoc2.peer[129] typename "\"Peer\""
par Tictoc2.peer[130] typename "\"Peer\""
par Tictoc2.peer[131] typename "\"Peer\""
par Tictoc2.peer[132] typename "\"Peer\""
par Tictoc2.peer[133] typename "\"Peer\""
par Tictoc2.peer[134] typename "\"Peer\""
par Tictoc2.peer[135] typename "\"Peer\""
par Tictoc2.peer[136] typename "\"Peer\""
par Tictoc2.peer[137] typename "\"Peer\""
par Tictoc2.peer[138] typename "\"Peer\""
par Tictoc2.peer[139] typename "\"Peer\""
par Tictoc2.peer[140] typename "\"Peer\""
par Tictoc2.peer[141] typename "\"Peer\""
par Tictoc2.peer[142] typename "\"Peer\""
par Tictoc2.peer[143] typename "\"Peer\""
par Tictoc2.peer[144] typename "\"Peer\""
par Tictoc2.peer[145] typename "\"Peer\""
par Tictoc2.peer[146] typename "\"Peer\""
par Tictoc2.peer[147] typename "\"Peer\""
par Tictoc2.peer[148] typename "\"Peer\""
par Tictoc2.peer[149] typename "\"Peer\""
par Tictoc2.peer[150] typename "\"Peer\""
par Tictoc2.peer[151] typename "\"Peer\""
par Tictoc2.peer[152] typename "\"Peer\""
par Tictoc2.peer[153] typename "\"Peer\""
par Tictoc2.peer[154] typename "\"Peer\""
par Tictoc2.peer[155] typename "\"Peer\""
par Tictoc2.peer[156] typename "\"Peer\""
par Tictoc2.peer[157] typename "\"Peer\""
par Tictoc2.peer[158] typename "\"Peer\""
par Tictoc2.peer[159] typename "\"Peer\""
par Tictoc2.peer[160] typename "\"Peer\""
par Tictoc2.peer[161] typename "\"Peer\""
par Tictoc2.peer[162] typename "\"Peer\""
par Tictoc2.peer[163] typename "\"Peer\""
par Tictoc2.peer[164] typename "\"Peer\""
par Tictoc2.peer[165] typename "\"Peer\""
par Tictoc2.peer[166] typename "\"Peer\""
par Tictoc2.peer[167] typename "\"Peer\""
par Tictoc2.peer[168] typename "\"Peer\""
par Tictoc2.peer[169] typename "\"Peer\""
par Tictoc2.peer[170] typename "\"Peer\""
par Tictoc2.peer[171] typename "\"Peer\""
par Tictoc2.peer[172] typename "\"Peer\""
par Tictoc2.peer[173] typename "\"Peer\""
par Tictoc2.peer[174] typename "\"Peer\""
par Tictoc2.peer[175] typename "\"Peer\""
par Tictoc2.peer[176] typename "\"Peer\""
par Tictoc2.peer[177] typename "\"Peer\""
par Tictoc2.peer[178] typename "\"Peer\""
par Tictoc2.peer[179] typename "\"Peer\""
par Tictoc2.peer[180] typename "\"Peer\""
par Tictoc2.peer[181] typename "\"Peer\""
par Tictoc2.peer[182] typename "\"Peer\""
par Tictoc2.peer[183] typename "\"Peer\""
par Tictoc2.peer[184] typename "\"Peer\""
par Tictoc2.peer[185] typename "\"Peer\""
par Tictoc2.peer[186] typename "\"Peer\""
par Tictoc2.peer[187] typename "\"Peer\""
par Tictoc2.peer[188] typename "\"Peer\""
par Tictoc2.peer[189] typename "\"Peer\""
par Tictoc2.peer[190] typename "\"Peer\""
par Tictoc2.peer[191] typename "\"Peer\""
par Tictoc2.peer[192] typename "\"Peer\""
par Tictoc2.peer[193] typename "\"Peer\""
par Tictoc2.peer[194] typename "\"Peer\""
par Tictoc2.peer[195] typename "\"Peer\""
par Tictoc2.peer[196] typename "\"Peer\""
par Tictoc2.peer[197] typename "\"Peer\""
par Tictoc2.peer[198] typename "\"Peer\""
par Tictoc2.peer[199] typename "\"Peer\""
par Tictoc2.peer[200] typename "\"Peer\""
par Tictoc2.peer[201] typename "\"Peer\""
par Tictoc2.peer[202] typename "\"Peer\""
par Tictoc2.peer[203] typename "\"Peer\""
par Tictoc2.peer[204] typename "\"Peer\""
par Tictoc2.peer[205] typename "\"Peer\""
par Tictoc2.peer[206] typename "\"Peer\""
par Tictoc2.peer[207] typename "\"Peer\""
par Tictoc2.peer[208] typename "\"Peer\""
par Tictoc2.peer[209] typename "\"Peer\""
par Tictoc2.peer[210] typename "\"Peer\""
par Tictoc2.peer[211] typename "\"Peer\""
par Tictoc2.peer[212] typename "\"Peer\""
par Tictoc2.peer[213] typename "\"Peer\""
par Tictoc2.peer[214] typename "\"Peer\""
par Tictoc2.peer[215] typename "\"Peer\""
par Tictoc2.peer[216] typename "\"Peer\""
par Tictoc2.peer[217] typename "\"Peer\""
par Tictoc2.peer[218] typename "\"Peer\""
par Tictoc2.peer[219] typename "\"Peer\""
par Tictoc2.peer[220] typename "\"Peer\""
par Tictoc2.peer[221] typename "\"Peer\""
par Tictoc2.peer[222] typename "\"Peer\""
par Tictoc2.peer[223] typename "\"Peer\""
par Tictoc2.peer[224] typename "\"Peer\""
par Tictoc2.peer[225] typename "\"Peer\""
par Tictoc2.peer[226] typename "\"Peer\""
par Tictoc2.peer[227] typename "\"Peer\""
par Tictoc2.peer[228] typename "\"Peer\""
par Tictoc2.peer[229] typename "\"Peer\""
par Tictoc2.peer[230] typename "\"Peer\""
par Tictoc2.peer[231] typename "\"Peer\""
par Tictoc2.peer[232] typename "\"Peer\""
par Tictoc2.peer[233] typename "\"Peer\""
par Tictoc2.peer[234] typename "\"Peer\""
par Tictoc2.peer[235] typename "\"Peer\""
par Tictoc2.peer[236] typename "\"Peer\""
par Tictoc2.peer[237] typename "\"Peer\""
par Tictoc2.peer[238] typename "\"Peer\""
par Tictoc2.peer[239] typename "\"Peer\""
par Tictoc2.peer[240] typename "\"Peer\""
par Tictoc2.peer[241] typename "\"Peer\""
par Tictoc2.peer[242] typename "\"Peer\""
par Tictoc2.peer[243] typename "\"Peer\""
par Tictoc2.peer[244] typename "\"Peer\""
par Tictoc2.peer[245] typename "\"Peer\""
par Tictoc2.peer[246] typename "\"Peer\""
par Tictoc2.peer[247] typename "\"Peer\""
par Tictoc2.peer[248] typename "\"Peer\""
par Tictoc2.peer[249] typename "\"Peer\""
par Tictoc2.peer[250] typename "\"Peer\""
par Tictoc2.peer[251] typename "\"Peer\""
par Tictoc2.peer[252] typename "\"Peer\""
par Tictoc2.peer[253] typename "\"Peer\""
par Tictoc2.peer[254] typename "\"Peer\""
par Tictoc2.peer[255] typename "\"Peer\""
par Tictoc2.peer[256] typename "\"Peer\""
par Tictoc2.peer[257] typename "\"Peer\""
par Tictoc2.peer[258] typename "\"Peer\""
par Tictoc2.peer[259] typename "\"Peer\""
par Tictoc2.peer[260] typename "\"Peer\""
par Tictoc2.peer[261] typename "\"Peer\""
par Tictoc2.peer[262] typename "\"Peer\""
par Tictoc2.peer[263] typename "\"Peer\""
par Tictoc2.peer[264] typename "\"Peer\""
par Tictoc2.peer[265] typename "\"Peer\""
par Tictoc2.peer[266] typename "\"Peer\""
par Tictoc2.peer[267] typename "\"Peer\""
par Tictoc2.peer[268] typename "\"Peer\""
par Tictoc2.peer[269] typename "\"Peer\""
par Tictoc2.peer[270] typename "\"Peer\""
par Tictoc2.peer[271] typename "\"Peer\""
par Tictoc2.peer[272] typename "\"Peer\""
par Tictoc2.peer[273] typename "\"Peer\""
par Tictoc2.peer[274] typename "\"Peer\""
par Tictoc2.peer[275] typename "\"Peer\""
par Tictoc2.peer[276] typename "\"Peer\""
par Tictoc2.peer[277] typename "\"Peer\""
par Tictoc2.peer[278] typename "\"Peer\""
par Tictoc2.peer[279] typename "\"Peer\""
par Tictoc2.peer[280] typename "\"Peer\""
par Tictoc2.peer[281] typename "\"Peer\""
par Tictoc2.peer[282] typename "\"Peer\""
par Tictoc2.peer[283] typename "\"Peer\""
par Tictoc2.peer[284] typename "\"Peer\""
par Tictoc2.peer[285] typename "\"Peer\""
par Tictoc2.peer[286] typename "\"Peer\""
par Tictoc2.peer[287] typename "\"Peer\""
par Tictoc2.peer[288] typename "\"Peer\""
par Tictoc2.peer[289] typename "\"Peer\""
par Tictoc2.peer[290] typename "\"Peer\""
par Tictoc2.peer[291] typename "\"Peer\""
par Tictoc2.peer[292] typename "\"Peer\""
par Tictoc2.peer[293] typename "\"Peer\""
par Tictoc2.peer[294] typename "\"Peer\""
par Tictoc2.peer[295] typename "\"Peer\""
par Tictoc2.peer[296] typename "\"Peer\""
par Tictoc2.peer[297] typename "\"Peer\""
par Tictoc2.peer[298] typename "\"Peer\""
par Tictoc2.peer[299] typename "\"Peer\""
par Tictoc2.peer[300] typename "\"Peer\""
par Tictoc2.peer[301] typename "\"Peer\""
par Tictoc2.peer[302] typename "\"Peer\""
par Tictoc2.peer[303] typename "\"Peer\""
par Tictoc2.peer[304] typename "\"Peer\""
par Tictoc2.peer[305] typename "\"Peer\""
par Tictoc2.peer[306] typename "\"Peer\""
par Tictoc2.peer[307] typename "\"Peer\""
par Tictoc2.peer[308] typename "\"Peer\""
par Tictoc2.peer[309] typename "\"Peer\""
par Tictoc2.peer[310] typename "\"Peer\""
par Tictoc2.peer[311] typename "\"Peer\""
par Tictoc2.peer[312] typename "\"Peer\""
par Tictoc2.peer[313] typename "\"Peer\""
par Tictoc2.peer[314] typename "\"Peer\""
par Tictoc2.peer[315] typename "\"Peer\""
par Tictoc2.peer[316] typename "\"Peer\""
par Tictoc2.peer[317] typename "\"Peer\""
par Tictoc2.peer[318] typename "\"Peer\""
par Tictoc2.peer[319] typename "\"Peer\""
par Tictoc2.peer[320] typename "\"Peer\""
par Tictoc2.peer[321] typename "\"Peer\""
par Tictoc2.peer[322] typename "\"Peer\""
par Tictoc2.peer[323] typename "\"Peer\""
par Tictoc2.peer[324] typename "\"Peer\""
par Tictoc2.peer[325] typename "\"Peer\""
par Tictoc2.peer[326] typename "\"Peer\""
par Tictoc2.peer[327] typename "\"Peer\""
par Tictoc2.peer[328] typename "\"Peer\""
par Tictoc2.peer[329] typename "\"Peer\""
par Tictoc2.peer[330] typename "\"Peer\""
par Tictoc2.peer[331] typename "\"Peer\""
par Tictoc2.peer[332] typename "\"Peer\""
par Tictoc2.peer[333] typename "\"Peer\""
par Tictoc2.peer[334] typename "\"Peer\""
par Tictoc2.peer[335] typename "\"Peer\""
par Tictoc2.peer[336] typename "\"Peer\""
par Tictoc2.peer[337] typename "\"Peer\""
par Tictoc2.peer[338] typename "\"Peer\""
par Tictoc2.peer[339] typename "\"Peer\""
par Tictoc2.peer[340] typename "\"Peer\""
par Tictoc2.peer[341] typename "\"Peer\""
par Tictoc2.peer[342] typename "\"Peer\""
par Tictoc2.peer[343] typename "\"Peer\""
par Tictoc2.peer[344] typename "\"Peer\""
par Tictoc2.peer[345] typename "\"Peer\""
par Tictoc2.peer[346] typename "\"Peer\""
par Tictoc2.peer[347] typename "\"Peer\""
par Tictoc2.peer[348] typename "\"Peer\""
par Tictoc2.peer[349] typename "\"Peer\""
par Tictoc2.peer[350] typename "\"Peer\""
par Tictoc2.peer[351] typename "\"Peer\""
par Tictoc2.peer[352] typename "\"Peer\""
par Tictoc2.peer[353] typename "\"Peer\""
par Tictoc2.peer[354] typename "\"Peer\""
par Tictoc2.peer[355] typename "\"Peer\""
par Tictoc2.peer[356] typename "\"Peer\""
par Tictoc2.peer[357] typename "\"Peer\""
par Tictoc2.peer[358] typename "\"Peer\""
par Tictoc2.peer[359] typename "\"Peer\""
par Tictoc2.peer[360] typename "\"Peer\""
par Tictoc2.peer[361] typename "\"Peer\""
par Tictoc2.peer[362] typename "\"Peer\""
par Tictoc2.peer[363] typename "\"Peer\""
par Tictoc2.peer[364] typename "\"Peer\""
par Tictoc2.peer[365] typename "\"Peer\""
par Tictoc2.peer[366] typename "\"Peer\""
par Tictoc2.peer[367] typename "\"Peer\""
par Tictoc2.peer[368] typename "\"Peer\""
par Tictoc2.peer[369] typename "\"Peer\""
par Tictoc2.peer[370] typename "\"Peer\""
par Tictoc2.peer[371] typename "\"Peer\""
par Tictoc2.peer[372] typename "\"Peer\""
par Tictoc2.peer[373] typename "\"Peer\""
par Tictoc2.peer[374] typename "\"Peer\""
par Tictoc2.peer[375] typename "\"Peer\""
par Tictoc2.peer[376] typename "\"Peer\""
par Tictoc2.peer[377] typename "\"Peer\""
par Tictoc2.peer[378] typename "\"Peer\""
par Tictoc2.peer[379] typename "\"Peer\""
par Tictoc2.peer[380] typename "\"Peer\""
par Tictoc2.peer[381] typename "\"Peer\""
par Tictoc2.peer[382] typename "\"Peer\""
par Tictoc2.peer[383] typename "\"Peer\""
par Tictoc2.peer[384] typename "\"Peer\""
par Tictoc2.peer[385] typename "\"Peer\""
par Tictoc2.peer[386] typename "\"Peer\""
par Tictoc2.peer[387] typename "\"Peer\""
par Tictoc2.peer[388] typename "\"Peer\""
par Tictoc2.peer[389] typename "\"Peer\""
par Tictoc2.peer[390] typename "\"Peer\""
par Tictoc2.peer[391] typename "\"Peer\""
par Tictoc2.peer[392] typename "\"Peer\""
par Tictoc2.peer[393] typename "\"Peer\""
par Tictoc2.peer[394] typename "\"Peer\""
par Tictoc2.peer[395] typename "\"Peer\""
par Tictoc2.peer[396] typename "\"Peer\""
par Tictoc2.peer[397] typename "\"Peer\""
par Tictoc2.peer[398] typename "\"Peer\""
par Tictoc2.peer[399] typename "\"Peer\""
par Tictoc2.peer[400] typename "\"Peer\""
par Tictoc2.peer[401] typename "\"Peer\""
par Tictoc2.peer[402] typename "\"Peer\""
par Tictoc2.peer[403] typename "\"Peer\""
par Tictoc2.peer[404] typename "\"Peer\""
par Tictoc2.peer[405] typename "\"Peer\""
par Tictoc2.peer[406] typename "\"Peer\""
par Tictoc2.peer[407] typename "\"Peer\""
par Tictoc2.peer[408] typename "\"Peer\""
par Tictoc2.peer[409] typename "\"Peer\""
par Tictoc2.peer[410] typename "\"Peer\""
par Tictoc2.peer[411] typename "\"Peer\""
par Tictoc2.peer[412] typename "\"Peer\""
par Tictoc2.peer[413] typename "\"Peer\""
par Tictoc2.peer[414] typename "\"Peer\""
par Tictoc2.peer[415] typename "\"Peer\""
par Tictoc2.peer[416] typename "\"Peer\""
par Tictoc2.peer[417] typename "\"Peer\""
par Tictoc2.peer[418] typename "\"Peer\""
par Tictoc2.peer[419] typename "\"Peer\""
par Tictoc2.peer[420] typename "\"Peer\""
par Tictoc2.peer[421] typename "\"Peer\""
par Tictoc2.peer[422] typename "\"Peer\""
par Tictoc2.peer[423] typename "\"Peer\""
par Tictoc2.peer[424] typename "\"Peer\""
par Tictoc2.peer[425] typename "\"Peer\""
par Tictoc2.peer[426] typename "\"Peer\""
par Tictoc2.peer[427] typename "\"Peer\""
par Tictoc2.peer[428] typename "\"Peer\""
par Tictoc2.peer[429] typename "\"Peer\""
par Tictoc2.peer[430] typename "\"Peer\""
par Tictoc2.peer[431] typename "\"Peer\""
par Tictoc2.peer[432] typename "\"Peer\""
par Tictoc2.peer[433] typename "\"Peer\""
par Tictoc2.peer[434] typename "\"Peer\""
par Tictoc2.peer[435] typename "\"Peer\""
par Tictoc2.peer[436] typename "\"Peer\""
par Tictoc2.peer[437] typename "\"Peer\""
par Tictoc2.peer[438] typename "\"Peer\""
par Tictoc2.peer[439] typename "\"Peer\""
par Tictoc2.peer[440] typename "\"Peer\""
par Tictoc2.peer[441] typename "\"Peer\""
par Tictoc2.peer[442] typename "\"Peer\""
par Tictoc2.peer[443] typename "\"Peer\""
par Tictoc2.peer[444] typename "\"Peer\""
par Tictoc2.peer[445] typename "\"Peer\""
par Tictoc2.peer[446] typename "\"Peer\""
par Tictoc2.peer[447] typename "\"Peer\""
par Tictoc2.peer[448] typename "\"Peer\""
par Tictoc2.peer[449] typename "\"Peer\""
par Tictoc2.peer[450] typename "\"Peer\""
par Tictoc2.peer[451] typename "\"Peer\""
par Tictoc2.peer[452] typename "\"Peer\""
par Tictoc2.peer[453] typename "\"Peer\""
par Tictoc2.peer[454] typename "\"Peer\""
par Tictoc2.peer[455] typename "\"Peer\""
par Tictoc2.peer[456] typename "\"Peer\""
par Tictoc2.peer[457] typename "\"Peer\""
par Tictoc2.peer[458] typename "\"Peer\""
par Tictoc2.peer[459] typename "\"Peer\""
par Tictoc2.peer[460] typename "\"Peer\""
par Tictoc2.peer[461] typename "\"Peer\""
par Tictoc2.peer[462] typename "\"Peer\""
par Tictoc2.peer[463] typename "\"Peer\""
par Tictoc2.peer[464] typename "\"Peer\""
par Tictoc2.peer[465] typename "\"Peer\""
par Tictoc2.peer[466] typename "\"Peer\""
par Tictoc2.peer[467] typename "\"Peer\""
par Tictoc2.peer[468] typename "\"Peer\""
par Tictoc2.peer[469] typename "\"Peer\""
par Tictoc2.peer[470] typename "\"Peer\""
par Tictoc2.peer[471] typename "\"Peer\""
par Tictoc2.peer[472] typename "\"Peer\""
par Tictoc2.peer[473] typename "\"Peer\""
par Tictoc2.peer[474] typename "\"Peer\""
par Tictoc2.peer[475] typename "\"Peer\""
par Tictoc2.peer[476] typename "\"Peer\""
par Tictoc2.peer[477] typename "\"Peer\""
par Tictoc2.peer[478] typename "\"Peer\""
par Tictoc2.peer[479] typename "\"Peer\""
par Tictoc2.peer[480] typename "\"Peer\""
par Tictoc2.peer[481] typename "\"Peer\""
par Tictoc2.peer[482] typename "\"Peer\""
par Tictoc2.peer[483] typename "\"Peer\""
par Tictoc2.peer[484] typename "\"Peer\""
par Tictoc2.peer[485] typename "\"Peer\""
par Tictoc2.peer[486] typename "\"Peer\""
par Tictoc2.peer[487] typename "\"Peer\""
par Tictoc2.peer[488] typename "\"Peer\""
par Tictoc2.peer[489] typename "\"Peer\""
par Tictoc2.peer[490] typename "\"Peer\""
par Tictoc2.peer[491] typename "\"Peer\""
par Tictoc2.peer[492] typename "\"Peer\""
par Tictoc2.peer[493] typename "\"Peer\""
par Tictoc2.peer[494] typename "\"Peer\""
par Tictoc2.peer[495] typename "\"Peer\""
par Tictoc2.peer[496] typename "\"Peer\""
par Tictoc2.peer[497] typename "\"Peer\""
par Tictoc2.peer[498] typename "\"Peer\""
par Tictoc2.peer[499] typename "\"Peer\""
par Tictoc2 typename "\"Tictoc2\""

